9
XXILIB    08252103503D 0   0.00000     0.00000

 31 33  0     1  0            999 V2000
    5.0107   -1.4785    0.0029 Cl  0  0  0  0  0  1           0  0  0
   -4.3458   -2.0222    3.5992 O   0  0  0  0  0  2           0  0  0
   -1.3131   -3.5489    3.4096 O   0  0  0  0  0  2           0  0  0
    0.7417   -2.5857   -0.9804 O   0  0  0  0  0  2           0  0  0
   -5.5726   -3.2864    5.0460 O   0  0  0  0  0  2           0  0  0
    1.4518    0.0000    0.0000 N   0  0  0  0  0  3           0  0  0
    3.5355    0.7714   -0.0002 N   0  0  0  0  0  3           0  0  0
    3.5508   -0.5984   -0.0049 C   0  0  0  0  0  4           0  0  0
    2.2641    1.1177    0.0000 C   0  0  0  0  0  4           0  0  0
    2.2681   -1.1139   -0.0135 C   0  0  0  0  0  4           0  0  0
   -3.4347   -2.6574    5.7095 C   0  0  0  0  0  4           0  0  0
   -2.0582   -2.6132    5.4267 C   0  0  0  0  0  4           0  0  0
   -1.2883   -1.2140    3.3739 C   0  0  0  0  0  4           0  0  0
   -0.5420    0.0000    1.3966 C   0  0  0  0  0  4           0  0  0
   -0.7994   -1.2096    2.0599 C   0  0  0  0  0  4           0  0  0
   -3.8993   -2.7748    7.0255 C   0  0  0  0  0  4           0  0  0
   -1.1591   -2.6744    6.5024 C   0  0  0  0  0  4           0  0  0
   -1.5206   -0.0007    4.0297 C   0  0  0  0  0  4           0  0  0
   -0.7731    1.2065    2.0691 C   0  0  0  0  0  4           0  0  0
   -1.2619    1.2045    3.3759 C   0  0  0  0  0  4           0  0  0
   -2.9905   -2.8352    8.0780 C   0  0  0  0  0  4           0  0  0
   -1.6241   -2.7825    7.8170 C   0  0  0  0  0  4           0  0  0
   -4.4708   -2.6029    4.6642 C   0  0  0  0  0  4           0  0  0
   -1.5399   -2.5146    4.0328 C   0  0  0  0  0  4           0  0  0
    1.7895   -2.5152   -0.0232 C   0  0  0  0  0  4           0  0  0
    0.1888   -3.8910   -1.0894 C   0  0  0  0  0  4           0  0  0
    0.0000    0.0000    0.0000 C   0  0  0  0  0  4           0  0  0
    1.7702    2.5201    0.0095 C   0  0  0  0  0  4           0  0  0
    2.5114    3.4050   -0.9886 C   0  0  0  0  0  4           0  0  0
    2.3981    2.9479   -2.4436 C   0  0  0  0  0  4           0  0  0
    3.1580    3.8724   -3.3804 C   0  0  0  0  0  4           0  0  0
  1  8  1  0     0  0
  2 23  2  0     0  0
  3 24  2  0     0  0
  4 25  1  0     0  0
  4 26  1  0     0  0
  5 23  1  0     0  0
  6  9  1  0     0  0
  6 10  1  0     0  0
  6 27  1  0     0  0
  7  8  1  0     0  0
  7  9  2  0     0  0
  8 10  2  0     0  0
  9 28  1  0     0  0
 10 25  1  0     0  0
 11 12  1  0     0  0
 11 16  2  0     0  0
 11 23  1  0     0  0
 12 17  2  0     0  0
 12 24  1  0     0  0
 13 15  2  0     0  0
 13 18  1  0     0  0
 13 24  1  0     0  0
 14 15  1  0     0  0
 14 19  2  0     0  0
 14 27  1  0     0  0
 16 21  1  0     0  0
 17 22  1  0     0  0
 18 20  2  0     0  0
 19 20  1  0     0  0
 21 22  2  0     0  0
 28 29  1  0     0  0
 29 30  1  0     0  0
 30 31  1  0     0  0
M  END
> <standard_type>
pIC50

> <# Confs.>
25

> <canonical_smiles>
ClC(N=C1CCCC)=C(COC)N1CC2=CC=CC(C(C3=CC=CC=C3C(O)=O)=O)=C2

> <standard_relation>
=

> <Publication_ID>
nan

> <predicted_activity_value>
6.958607314841775

> <actual_activity_value>
6.823908740944319

> <Compound>
10

> <standard_units>
nM

> hash
12268670834815209692

$$$$
9
XXILIB    08252103503D 0   0.00000     0.00000

 31 33  0     1  0            999 V2000
    5.0107   -1.4785    0.0029 Cl  0  0  0  0  0  1           0  0  0
   -4.5233   -2.5755    5.1589 O   0  0  0  0  0  2           0  0  0
   -1.8613   -3.4777    3.3409 O   0  0  0  0  0  2           0  0  0
    0.7417   -2.5857   -0.9804 O   0  0  0  0  0  2           0  0  0
   -4.1941   -4.6730    5.9885 O   0  0  0  0  0  2           0  0  0
    1.4518    0.0000    0.0000 N   0  0  0  0  0  3           0  0  0
    3.5355    0.7714   -0.0002 N   0  0  0  0  0  3           0  0  0
    3.5508   -0.5984   -0.0049 C   0  0  0  0  0  4           0  0  0
    2.2641    1.1177    0.0000 C   0  0  0  0  0  4           0  0  0
    2.2681   -1.1139   -0.0135 C   0  0  0  0  0  4           0  0  0
   -2.4996   -3.1117    6.3009 C   0  0  0  0  0  4           0  0  0
   -1.4162   -2.6968    5.5068 C   0  0  0  0  0  4           0  0  0
   -1.2883   -1.2140    3.3739 C   0  0  0  0  0  4           0  0  0
   -0.5420   -0.0000    1.3966 C   0  0  0  0  0  4           0  0  0
   -0.7994   -1.2096    2.0599 C   0  0  0  0  0  4           0  0  0
   -2.3545   -3.3001    7.6811 C   0  0  0  0  0  4           0  0  0
   -0.1852   -2.4606    6.1379 C   0  0  0  0  0  4           0  0  0
   -1.5206   -0.0007    4.0297 C   0  0  0  0  0  4           0  0  0
   -0.7731    1.2065    2.0691 C   0  0  0  0  0  4           0  0  0
   -1.2619    1.2045    3.3759 C   0  0  0  0  0  4           0  0  0
   -1.1244   -3.0614    8.2871 C   0  0  0  0  0  4           0  0  0
   -0.0435   -2.6403    7.5176 C   0  0  0  0  0  4           0  0  0
   -3.8369   -3.3912    5.7508 C   0  0  0  0  0  4           0  0  0
   -1.5399   -2.5146    4.0328 C   0  0  0  0  0  4           0  0  0
    1.7895   -2.5152   -0.0232 C   0  0  0  0  0  4           0  0  0
    0.1888   -3.8910   -1.0894 C   0  0  0  0  0  4           0  0  0
    0.0000    0.0000    0.0000 C   0  0  0  0  0  4           0  0  0
    1.7702    2.5201    0.0095 C   0  0  0  0  0  4           0  0  0
    2.5114    3.4050   -0.9886 C   0  0  0  0  0  4           0  0  0
    2.3981    2.9479   -2.4436 C   0  0  0  0  0  4           0  0  0
    3.1580    3.8724   -3.3804 C   0  0  0  0  0  4           0  0  0
  1  8  1  0     0  0
  2 23  2  0     0  0
  3 24  2  0     0  0
  4 25  1  0     0  0
  4 26  1  0     0  0
  5 23  1  0     0  0
  6  9  1  0     0  0
  6 10  1  0     0  0
  6 27  1  0     0  0
  7  8  1  0     0  0
  7  9  2  0     0  0
  8 10  2  0     0  0
  9 28  1  0     0  0
 10 25  1  0     0  0
 11 12  1  0     0  0
 11 16  2  0     0  0
 11 23  1  0     0  0
 12 17  2  0     0  0
 12 24  1  0     0  0
 13 15  2  0     0  0
 13 18  1  0     0  0
 13 24  1  0     0  0
 14 15  1  0     0  0
 14 19  2  0     0  0
 14 27  1  0     0  0
 16 21  1  0     0  0
 17 22  1  0     0  0
 18 20  2  0     0  0
 19 20  1  0     0  0
 21 22  2  0     0  0
 28 29  1  0     0  0
 29 30  1  0     0  0
 30 31  1  0     0  0
M  END
> <standard_type>
pIC50

> <# Confs.>
25

> <canonical_smiles>
ClC(N=C1CCCC)=C(COC)N1CC2=CC=CC(C(C3=CC=CC=C3C(O)=O)=O)=C2

> <standard_relation>
=

> <Publication_ID>
nan

> <predicted_activity_value>
6.958607314841775

> <actual_activity_value>
6.823908740944319

> <Compound>
10

> <standard_units>
nM

> hash
12268670834815209692

$$$$
9
XXILIB    08252103503D 0   0.00000     0.00000

 31 33  0     1  0            999 V2000
    5.0107   -1.4785    0.0029 Cl  0  0  0  0  0  1           0  0  0
    0.8778   -2.0743    5.5322 O   0  0  0  0  0  2           0  0  0
   -1.3131   -3.5489    3.4096 O   0  0  0  0  0  2           0  0  0
    0.7417   -2.5857   -0.9804 O   0  0  0  0  0  2           0  0  0
    0.8408   -3.3222    7.4395 O   0  0  0  0  0  2           0  0  0
    1.4518    0.0000    0.0000 N   0  0  0  0  0  3           0  0  0
    3.5355    0.7714   -0.0002 N   0  0  0  0  0  3           0  0  0
    3.5508   -0.5984   -0.0049 C   0  0  0  0  0  4           0  0  0
    2.2641    1.1177    0.0000 C   0  0  0  0  0  4           0  0  0
    2.2681   -1.1139   -0.0135 C   0  0  0  0  0  4           0  0  0
   -1.2007   -2.6676    6.5394 C   0  0  0  0  0  4           0  0  0
   -2.0582   -2.6132    5.4267 C   0  0  0  0  0  4           0  0  0
   -1.2883   -1.2140    3.3739 C   0  0  0  0  0  4           0  0  0
   -0.5420    0.0000    1.3966 C   0  0  0  0  0  4           0  0  0
   -0.7994   -1.2096    2.0599 C   0  0  0  0  0  4           0  0  0
   -1.7099   -2.7353    7.8424 C   0  0  0  0  0  4           0  0  0
   -3.4424   -2.6442    5.6555 C   0  0  0  0  0  4           0  0  0
   -1.5206   -0.0007    4.0297 C   0  0  0  0  0  4           0  0  0
   -0.7731    1.2065    2.0691 C   0  0  0  0  0  4           0  0  0
   -1.2619    1.2045    3.3759 C   0  0  0  0  0  4           0  0  0
   -3.0863   -2.7638    8.0474 C   0  0  0  0  0  4           0  0  0
   -3.9500   -2.7209    6.9565 C   0  0  0  0  0  4           0  0  0
    0.2672   -2.6400    6.4233 C   0  0  0  0  0  4           0  0  0
   -1.5399   -2.5146    4.0328 C   0  0  0  0  0  4           0  0  0
    1.7895   -2.5152   -0.0232 C   0  0  0  0  0  4           0  0  0
    0.1888   -3.8910   -1.0894 C   0  0  0  0  0  4           0  0  0
    0.0000    0.0000    0.0000 C   0  0  0  0  0  4           0  0  0
    1.7702    2.5201    0.0095 C   0  0  0  0  0  4           0  0  0
    2.5114    3.4050   -0.9886 C   0  0  0  0  0  4           0  0  0
    2.3981    2.9479   -2.4436 C   0  0  0  0  0  4           0  0  0
    3.1580    3.8724   -3.3804 C   0  0  0  0  0  4           0  0  0
  1  8  1  0     0  0
  2 23  2  0     0  0
  3 24  2  0     0  0
  4 25  1  0     0  0
  4 26  1  0     0  0
  5 23  1  0     0  0
  6  9  1  0     0  0
  6 10  1  0     0  0
  6 27  1  0     0  0
  7  8  1  0     0  0
  7  9  2  0     0  0
  8 10  2  0     0  0
  9 28  1  0     0  0
 10 25  1  0     0  0
 11 12  1  0     0  0
 11 16  2  0     0  0
 11 23  1  0     0  0
 12 17  2  0     0  0
 12 24  1  0     0  0
 13 15  2  0     0  0
 13 18  1  0     0  0
 13 24  1  0     0  0
 14 15  1  0     0  0
 14 19  2  0     0  0
 14 27  1  0     0  0
 16 21  1  0     0  0
 17 22  1  0     0  0
 18 20  2  0     0  0
 19 20  1  0     0  0
 21 22  2  0     0  0
 28 29  1  0     0  0
 29 30  1  0     0  0
 30 31  1  0     0  0
M  END
> <standard_type>
pIC50

> <# Confs.>
25

> <canonical_smiles>
ClC(N=C1CCCC)=C(COC)N1CC2=CC=CC(C(C3=CC=CC=C3C(O)=O)=O)=C2

> <standard_relation>
=

> <Publication_ID>
nan

> <predicted_activity_value>
6.958607314841775

> <actual_activity_value>
6.823908740944319

> <Compound>
10

> <standard_units>
nM

> hash
12268670834815209692

$$$$
9
XXILIB    08252103503D 0   0.00000     0.00000

 31 33  0     1  0            999 V2000
    5.0107   -1.4785    0.0029 Cl  0  0  0  0  0  1           0  0  0
   -3.4371   -4.3000    2.2002 O   0  0  0  0  0  2           0  0  0
   -2.4287   -2.5893    4.8777 O   0  0  0  0  0  2           0  0  0
    0.7417   -2.5857   -0.9804 O   0  0  0  0  0  2           0  0  0
   -3.3377   -6.0155    3.6981 O   0  0  0  0  0  2           0  0  0
    1.4518    0.0000    0.0000 N   0  0  0  0  0  3           0  0  0
    3.5355    0.7714   -0.0002 N   0  0  0  0  0  3           0  0  0
    3.5508   -0.5984   -0.0049 C   0  0  0  0  0  4           0  0  0
    2.2641    1.1177    0.0000 C   0  0  0  0  0  4           0  0  0
    2.2681   -1.1139   -0.0135 C   0  0  0  0  0  4           0  0  0
   -1.3580   -4.9016    3.2014 C   0  0  0  0  0  4           0  0  0
   -0.7528   -3.7373    3.7062 C   0  0  0  0  0  4           0  0  0
   -1.2883   -1.2140    3.3739 C   0  0  0  0  0  4           0  0  0
   -0.5420    0.0000    1.3966 C   0  0  0  0  0  4           0  0  0
   -0.7994   -1.2096    2.0599 C   0  0  0  0  0  4           0  0  0
   -0.5958   -6.0312    2.8781 C   0  0  0  0  0  4           0  0  0
    0.6380   -3.7420    3.8930 C   0  0  0  0  0  4           0  0  0
   -1.5206   -0.0007    4.0297 C   0  0  0  0  0  4           0  0  0
   -0.7731    1.2065    2.0691 C   0  0  0  0  0  4           0  0  0
   -1.2619    1.2045    3.3759 C   0  0  0  0  0  4           0  0  0
    0.7828   -6.0144    3.0699 C   0  0  0  0  0  4           0  0  0
    1.3974   -4.8735    3.5784 C   0  0  0  0  0  4           0  0  0
   -2.8069   -5.0136    2.9622 C   0  0  0  0  0  4           0  0  0
   -1.5399   -2.5146    4.0328 C   0  0  0  0  0  4           0  0  0
    1.7895   -2.5152   -0.0232 C   0  0  0  0  0  4           0  0  0
    0.1888   -3.8910   -1.0894 C   0  0  0  0  0  4           0  0  0
    0.0000    0.0000    0.0000 C   0  0  0  0  0  4           0  0  0
    1.7702    2.5201    0.0095 C   0  0  0  0  0  4           0  0  0
    2.5114    3.4050   -0.9886 C   0  0  0  0  0  4           0  0  0
    2.3981    2.9479   -2.4436 C   0  0  0  0  0  4           0  0  0
    3.1580    3.8724   -3.3804 C   0  0  0  0  0  4           0  0  0
  1  8  1  0     0  0
  2 23  2  0     0  0
  3 24  2  0     0  0
  4 25  1  0     0  0
  4 26  1  0     0  0
  5 23  1  0     0  0
  6  9  1  0     0  0
  6 10  1  0     0  0
  6 27  1  0     0  0
  7  8  1  0     0  0
  7  9  2  0     0  0
  8 10  2  0     0  0
  9 28  1  0     0  0
 10 25  1  0     0  0
 11 12  1  0     0  0
 11 16  2  0     0  0
 11 23  1  0     0  0
 12 17  2  0     0  0
 12 24  1  0     0  0
 13 15  2  0     0  0
 13 18  1  0     0  0
 13 24  1  0     0  0
 14 15  1  0     0  0
 14 19  2  0     0  0
 14 27  1  0     0  0
 16 21  1  0     0  0
 17 22  1  0     0  0
 18 20  2  0     0  0
 19 20  1  0     0  0
 21 22  2  0     0  0
 28 29  1  0     0  0
 29 30  1  0     0  0
 30 31  1  0     0  0
M  END
> <standard_type>
pIC50

> <# Confs.>
25

> <canonical_smiles>
ClC(N=C1CCCC)=C(COC)N1CC2=CC=CC(C(C3=CC=CC=C3C(O)=O)=O)=C2

> <standard_relation>
=

> <Publication_ID>
nan

> <predicted_activity_value>
6.958607314841775

> <actual_activity_value>
6.823908740944319

> <Compound>
10

> <standard_units>
nM

> hash
12268670834815209692

$$$$
9
XXILIB    08252103503D 0   0.00000     0.00000

 31 33  0     1  0            999 V2000
    5.0107   -1.4785    0.0029 Cl  0  0  0  0  0  1           0  0  0
   -4.5233   -2.5755    5.1589 O   0  0  0  0  0  2           0  0  0
   -1.8613   -3.4777    3.3409 O   0  0  0  0  0  2           0  0  0
    1.6630   -2.9164    1.3341 O   0  0  0  0  0  2           0  0  0
   -4.1941   -4.6730    5.9885 O   0  0  0  0  0  2           0  0  0
    1.4518   -0.0000   -0.0000 N   0  0  0  0  0  3           0  0  0
    3.5355    0.7714   -0.0002 N   0  0  0  0  0  3           0  0  0
    3.5508   -0.5984   -0.0049 C   0  0  0  0  0  4           0  0  0
    2.2641    1.1177    0.0000 C   0  0  0  0  0  4           0  0  0
    2.2681   -1.1139   -0.0135 C   0  0  0  0  0  4           0  0  0
   -2.4996   -3.1117    6.3009 C   0  0  0  0  0  4           0  0  0
   -1.4162   -2.6968    5.5068 C   0  0  0  0  0  4           0  0  0
   -1.2883   -1.2140    3.3739 C   0  0  0  0  0  4           0  0  0
   -0.5420   -0.0000    1.3966 C   0  0  0  0  0  4           0  0  0
   -0.7994   -1.2096    2.0599 C   0  0  0  0  0  4           0  0  0
   -2.3545   -3.3001    7.6811 C   0  0  0  0  0  4           0  0  0
   -0.1852   -2.4606    6.1379 C   0  0  0  0  0  4           0  0  0
   -1.5206   -0.0007    4.0297 C   0  0  0  0  0  4           0  0  0
   -0.7731    1.2065    2.0691 C   0  0  0  0  0  4           0  0  0
   -1.2619    1.2045    3.3759 C   0  0  0  0  0  4           0  0  0
   -1.1244   -3.0614    8.2871 C   0  0  0  0  0  4           0  0  0
   -0.0435   -2.6403    7.5176 C   0  0  0  0  0  4           0  0  0
   -3.8369   -3.3912    5.7508 C   0  0  0  0  0  4           0  0  0
   -1.5399   -2.5146    4.0328 C   0  0  0  0  0  4           0  0  0
    1.7895   -2.5152   -0.0232 C   0  0  0  0  0  4           0  0  0
    1.2065   -4.2563    1.4670 C   0  0  0  0  0  4           0  0  0
    0.0000    0.0000    0.0000 C   0  0  0  0  0  4           0  0  0
    1.7702    2.5201    0.0095 C   0  0  0  0  0  4           0  0  0
    2.5114    3.4050   -0.9886 C   0  0  0  0  0  4           0  0  0
    2.3981    2.9479   -2.4436 C   0  0  0  0  0  4           0  0  0
    3.1580    3.8724   -3.3804 C   0  0  0  0  0  4           0  0  0
  1  8  1  0     0  0
  2 23  2  0     0  0
  3 24  2  0     0  0
  4 25  1  0     0  0
  4 26  1  0     0  0
  5 23  1  0     0  0
  6  9  1  0     0  0
  6 10  1  0     0  0
  6 27  1  0     0  0
  7  8  1  0     0  0
  7  9  2  0     0  0
  8 10  2  0     0  0
  9 28  1  0     0  0
 10 25  1  0     0  0
 11 12  1  0     0  0
 11 16  2  0     0  0
 11 23  1  0     0  0
 12 17  2  0     0  0
 12 24  1  0     0  0
 13 15  2  0     0  0
 13 18  1  0     0  0
 13 24  1  0     0  0
 14 15  1  0     0  0
 14 19  2  0     0  0
 14 27  1  0     0  0
 16 21  1  0     0  0
 17 22  1  0     0  0
 18 20  2  0     0  0
 19 20  1  0     0  0
 21 22  2  0     0  0
 28 29  1  0     0  0
 29 30  1  0     0  0
 30 31  1  0     0  0
M  END
> <standard_type>
pIC50

> <# Confs.>
25

> <canonical_smiles>
ClC(N=C1CCCC)=C(COC)N1CC2=CC=CC(C(C3=CC=CC=C3C(O)=O)=O)=C2

> <standard_relation>
=

> <Publication_ID>
nan

> <predicted_activity_value>
6.958607314841775

> <actual_activity_value>
6.823908740944319

> <Compound>
10

> <standard_units>
nM

> hash
12268670834815209692

$$$$
9
XXILIB    08252103503D 0   0.00000     0.00000

 31 33  0     1  0            999 V2000
    5.0107   -1.4785    0.0029 Cl  0  0  0  0  0  1           0  0  0
   -3.3979    4.3215    2.1143 O   0  0  0  0  0  2           0  0  0
   -2.4949    2.5943    4.8359 O   0  0  0  0  0  2           0  0  0
    0.7417   -2.5857   -0.9804 O   0  0  0  0  0  2           0  0  0
   -3.3499    6.0167    3.6375 O   0  0  0  0  0  2           0  0  0
    1.4518    0.0000    0.0000 N   0  0  0  0  0  3           0  0  0
    3.5355    0.7714   -0.0002 N   0  0  0  0  0  3           0  0  0
    3.5508   -0.5984   -0.0049 C   0  0  0  0  0  4           0  0  0
    2.2641    1.1177    0.0000 C   0  0  0  0  0  4           0  0  0
    2.2681   -1.1139   -0.0135 C   0  0  0  0  0  4           0  0  0
   -1.3560    4.9031    3.2003 C   0  0  0  0  0  4           0  0  0
   -0.7762    3.7311    3.7168 C   0  0  0  0  0  4           0  0  0
   -1.3248    1.2140    3.3597 C   0  0  0  0  0  4           0  0  0
   -0.5420    0.0000    1.3966 C   0  0  0  0  0  4           0  0  0
   -0.7994    1.2096    2.0599 C   0  0  0  0  0  4           0  0  0
   -0.5822    6.0433    2.9496 C   0  0  0  0  0  4           0  0  0
    0.6058    3.7284    3.9608 C   0  0  0  0  0  4           0  0  0
   -1.5957    0.0007    4.0005 C   0  0  0  0  0  4           0  0  0
   -0.8250   -1.2065    2.0490 C   0  0  0  0  0  4           0  0  0
   -1.3457   -1.2045    3.3434 C   0  0  0  0  0  4           0  0  0
    0.7868    6.0197    3.1997 C   0  0  0  0  0  4           0  0  0
    1.3794    4.8644    3.7016 C   0  0  0  0  0  4           0  0  0
   -2.7942    5.0247    2.9067 C   0  0  0  0  0  4           0  0  0
   -1.5836    2.5146    4.0159 C   0  0  0  0  0  4           0  0  0
    1.7895   -2.5152   -0.0232 C   0  0  0  0  0  4           0  0  0
    0.1888   -3.8910   -1.0894 C   0  0  0  0  0  4           0  0  0
    0.0000    0.0000    0.0000 C   0  0  0  0  0  4           0  0  0
    1.7702    2.5201    0.0095 C   0  0  0  0  0  4           0  0  0
    2.5114    3.4050   -0.9886 C   0  0  0  0  0  4           0  0  0
    2.3981    2.9479   -2.4436 C   0  0  0  0  0  4           0  0  0
    3.1580    3.8724   -3.3804 C   0  0  0  0  0  4           0  0  0
  1  8  1  0     0  0
  2 23  2  0     0  0
  3 24  2  0     0  0
  4 25  1  0     0  0
  4 26  1  0     0  0
  5 23  1  0     0  0
  6  9  1  0     0  0
  6 10  1  0     0  0
  6 27  1  0     0  0
  7  8  1  0     0  0
  7  9  2  0     0  0
  8 10  2  0     0  0
  9 28  1  0     0  0
 10 25  1  0     0  0
 11 12  1  0     0  0
 11 16  2  0     0  0
 11 23  1  0     0  0
 12 17  2  0     0  0
 12 24  1  0     0  0
 13 15  2  0     0  0
 13 18  1  0     0  0
 13 24  1  0     0  0
 14 15  1  0     0  0
 14 19  2  0     0  0
 14 27  1  0     0  0
 16 21  1  0     0  0
 17 22  1  0     0  0
 18 20  2  0     0  0
 19 20  1  0     0  0
 21 22  2  0     0  0
 28 29  1  0     0  0
 29 30  1  0     0  0
 30 31  1  0     0  0
M  END
> <standard_type>
pIC50

> <# Confs.>
25

> <canonical_smiles>
ClC(N=C1CCCC)=C(COC)N1CC2=CC=CC(C(C3=CC=CC=C3C(O)=O)=O)=C2

> <standard_relation>
=

> <Publication_ID>
nan

> <predicted_activity_value>
6.958607314841775

> <actual_activity_value>
6.823908740944319

> <Compound>
10

> <standard_units>
nM

> hash
12268670834815209692

$$$$
9
XXILIB    08252103503D 0   0.00000     0.00000

 31 33  0     1  0            999 V2000
    5.0107   -1.4785    0.0029 Cl  0  0  0  0  0  1           0  0  0
   -4.3798    2.0743    3.4918 O   0  0  0  0  0  2           0  0  0
   -1.3306    3.5489    3.4028 O   0  0  0  0  0  2           0  0  0
    0.7417   -2.5857   -0.9804 O   0  0  0  0  0  2           0  0  0
   -5.6391    3.3222    4.9248 O   0  0  0  0  0  2           0  0  0
    1.4518    0.0000    0.0000 N   0  0  0  0  0  3           0  0  0
    3.5355    0.7714   -0.0002 N   0  0  0  0  0  3           0  0  0
    3.5508   -0.5984   -0.0049 C   0  0  0  0  0  4           0  0  0
    2.2641    1.1177    0.0000 C   0  0  0  0  0  4           0  0  0
    2.2681   -1.1139   -0.0135 C   0  0  0  0  0  4           0  0  0
   -3.5248    2.6676    5.6375 C   0  0  0  0  0  4           0  0  0
   -2.1412    2.6132    5.3945 C   0  0  0  0  0  4           0  0  0
   -1.3248    1.2140    3.3597 C   0  0  0  0  0  4           0  0  0
   -0.5420    0.0000    1.3966 C   0  0  0  0  0  4           0  0  0
   -0.7994    1.2096    2.0599 C   0  0  0  0  0  4           0  0  0
   -4.0279    2.7353    6.9428 C   0  0  0  0  0  4           0  0  0
   -1.2737    2.6442    6.4971 C   0  0  0  0  0  4           0  0  0
   -1.5957    0.0007    4.0005 C   0  0  0  0  0  4           0  0  0
   -0.8250   -1.2065    2.0490 C   0  0  0  0  0  4           0  0  0
   -1.3457   -1.2045    3.3434 C   0  0  0  0  0  4           0  0  0
   -3.1501    2.7638    8.0227 C   0  0  0  0  0  4           0  0  0
   -1.7766    2.7209    7.7999 C   0  0  0  0  0  4           0  0  0
   -4.5302    2.6400    4.5615 C   0  0  0  0  0  4           0  0  0
   -1.5836    2.5146    4.0159 C   0  0  0  0  0  4           0  0  0
    1.7895   -2.5152   -0.0232 C   0  0  0  0  0  4           0  0  0
    0.1888   -3.8910   -1.0894 C   0  0  0  0  0  4           0  0  0
    0.0000    0.0000    0.0000 C   0  0  0  0  0  4           0  0  0
    1.7702    2.5201    0.0095 C   0  0  0  0  0  4           0  0  0
    2.5114    3.4050   -0.9886 C   0  0  0  0  0  4           0  0  0
    2.3981    2.9479   -2.4436 C   0  0  0  0  0  4           0  0  0
    3.1580    3.8724   -3.3804 C   0  0  0  0  0  4           0  0  0
  1  8  1  0     0  0
  2 23  2  0     0  0
  3 24  2  0     0  0
  4 25  1  0     0  0
  4 26  1  0     0  0
  5 23  1  0     0  0
  6  9  1  0     0  0
  6 10  1  0     0  0
  6 27  1  0     0  0
  7  8  1  0     0  0
  7  9  2  0     0  0
  8 10  2  0     0  0
  9 28  1  0     0  0
 10 25  1  0     0  0
 11 12  1  0     0  0
 11 16  2  0     0  0
 11 23  1  0     0  0
 12 17  2  0     0  0
 12 24  1  0     0  0
 13 15  2  0     0  0
 13 18  1  0     0  0
 13 24  1  0     0  0
 14 15  1  0     0  0
 14 19  2  0     0  0
 14 27  1  0     0  0
 16 21  1  0     0  0
 17 22  1  0     0  0
 18 20  2  0     0  0
 19 20  1  0     0  0
 21 22  2  0     0  0
 28 29  1  0     0  0
 29 30  1  0     0  0
 30 31  1  0     0  0
M  END
> <standard_type>
pIC50

> <# Confs.>
25

> <canonical_smiles>
ClC(N=C1CCCC)=C(COC)N1CC2=CC=CC(C(C3=CC=CC=C3C(O)=O)=O)=C2

> <standard_relation>
=

> <Publication_ID>
nan

> <predicted_activity_value>
6.958607314841775

> <actual_activity_value>
6.823908740944319

> <Compound>
10

> <standard_units>
nM

> hash
12268670834815209692

$$$$
9
XXILIB    08252103503D 0   0.00000     0.00000

 31 33  0     1  0            999 V2000
    5.0107   -1.4785    0.0029 Cl  0  0  0  0  0  1           0  0  0
   -4.5233   -2.5755    5.1589 O   0  0  0  0  0  2           0  0  0
   -1.8613   -3.4777    3.3409 O   0  0  0  0  0  2           0  0  0
    1.6630   -2.9164    1.3341 O   0  0  0  0  0  2           0  0  0
   -4.1941   -4.6730    5.9885 O   0  0  0  0  0  2           0  0  0
    1.4518   -0.0000   -0.0000 N   0  0  0  0  0  3           0  0  0
    3.5355    0.7714   -0.0002 N   0  0  0  0  0  3           0  0  0
    3.5508   -0.5984   -0.0049 C   0  0  0  0  0  4           0  0  0
    2.2641    1.1177    0.0000 C   0  0  0  0  0  4           0  0  0
    2.2681   -1.1139   -0.0135 C   0  0  0  0  0  4           0  0  0
   -2.4996   -3.1117    6.3009 C   0  0  0  0  0  4           0  0  0
   -1.4162   -2.6968    5.5068 C   0  0  0  0  0  4           0  0  0
   -1.2883   -1.2140    3.3739 C   0  0  0  0  0  4           0  0  0
   -0.5420   -0.0000    1.3966 C   0  0  0  0  0  4           0  0  0
   -0.7994   -1.2096    2.0599 C   0  0  0  0  0  4           0  0  0
   -2.3545   -3.3001    7.6811 C   0  0  0  0  0  4           0  0  0
   -0.1852   -2.4606    6.1379 C   0  0  0  0  0  4           0  0  0
   -1.5206   -0.0007    4.0297 C   0  0  0  0  0  4           0  0  0
   -0.7731    1.2065    2.0691 C   0  0  0  0  0  4           0  0  0
   -1.2619    1.2045    3.3759 C   0  0  0  0  0  4           0  0  0
   -1.1244   -3.0614    8.2871 C   0  0  0  0  0  4           0  0  0
   -0.0435   -2.6403    7.5176 C   0  0  0  0  0  4           0  0  0
   -3.8369   -3.3912    5.7508 C   0  0  0  0  0  4           0  0  0
   -1.5399   -2.5146    4.0328 C   0  0  0  0  0  4           0  0  0
    1.7895   -2.5152   -0.0232 C   0  0  0  0  0  4           0  0  0
    1.2065   -4.2563    1.4670 C   0  0  0  0  0  4           0  0  0
    0.0000    0.0000    0.0000 C   0  0  0  0  0  4           0  0  0
    1.7702    2.5201    0.0095 C   0  0  0  0  0  4           0  0  0
    2.5114    3.4050   -0.9886 C   0  0  0  0  0  4           0  0  0
    2.0385    4.8591   -1.0160 C   0  0  0  0  0  4           0  0  0
    2.8177    5.6809   -2.0296 C   0  0  0  0  0  4           0  0  0
  1  8  1  0     0  0
  2 23  2  0     0  0
  3 24  2  0     0  0
  4 25  1  0     0  0
  4 26  1  0     0  0
  5 23  1  0     0  0
  6  9  1  0     0  0
  6 10  1  0     0  0
  6 27  1  0     0  0
  7  8  1  0     0  0
  7  9  2  0     0  0
  8 10  2  0     0  0
  9 28  1  0     0  0
 10 25  1  0     0  0
 11 12  1  0     0  0
 11 16  2  0     0  0
 11 23  1  0     0  0
 12 17  2  0     0  0
 12 24  1  0     0  0
 13 15  2  0     0  0
 13 18  1  0     0  0
 13 24  1  0     0  0
 14 15  1  0     0  0
 14 19  2  0     0  0
 14 27  1  0     0  0
 16 21  1  0     0  0
 17 22  1  0     0  0
 18 20  2  0     0  0
 19 20  1  0     0  0
 21 22  2  0     0  0
 28 29  1  0     0  0
 29 30  1  0     0  0
 30 31  1  0     0  0
M  END
> <standard_type>
pIC50

> <# Confs.>
25

> <canonical_smiles>
ClC(N=C1CCCC)=C(COC)N1CC2=CC=CC(C(C3=CC=CC=C3C(O)=O)=O)=C2

> <standard_relation>
=

> <Publication_ID>
nan

> <predicted_activity_value>
6.958607314841775

> <actual_activity_value>
6.823908740944319

> <Compound>
10

> <standard_units>
nM

> hash
12268670834815209692

$$$$
9
XXILIB    08252103503D 0   0.00000     0.00000

 31 33  0     1  0            999 V2000
    5.0107   -1.4785    0.0029 Cl  0  0  0  0  0  1           0  0  0
   -4.5966    2.6208    5.0432 O   0  0  0  0  0  2           0  0  0
   -1.8772    3.4827    3.3186 O   0  0  0  0  0  2           0  0  0
    0.7417   -2.5857   -0.9804 O   0  0  0  0  0  2           0  0  0
   -4.2677    4.6996    5.9188 O   0  0  0  0  0  2           0  0  0
    1.4518    0.0000    0.0000 N   0  0  0  0  0  3           0  0  0
    3.5355    0.7714   -0.0002 N   0  0  0  0  0  3           0  0  0
    3.5508   -0.5984   -0.0049 C   0  0  0  0  0  4           0  0  0
    2.2641    1.1177    0.0000 C   0  0  0  0  0  4           0  0  0
    2.2681   -1.1139   -0.0135 C   0  0  0  0  0  4           0  0  0
   -2.6036    3.1113    6.2576 C   0  0  0  0  0  4           0  0  0
   -1.5010    2.6906    5.4935 C   0  0  0  0  0  4           0  0  0
   -1.3248    1.2140    3.3597 C   0  0  0  0  0  4           0  0  0
   -0.5420    0.0000    1.3966 C   0  0  0  0  0  4           0  0  0
   -0.7994    1.2096    2.0599 C   0  0  0  0  0  4           0  0  0
   -2.5106    3.2464    7.6484 C   0  0  0  0  0  4           0  0  0
   -0.2961    2.4235    6.1615 C   0  0  0  0  0  4           0  0  0
   -1.5957    0.0007    4.0005 C   0  0  0  0  0  4           0  0  0
   -0.8250   -1.2065    2.0490 C   0  0  0  0  0  4           0  0  0
   -1.3457   -1.2045    3.3434 C   0  0  0  0  0  4           0  0  0
   -1.3063    2.9753    8.2915 C   0  0  0  0  0  4           0  0  0
   -0.2014    2.5674    7.5494 C   0  0  0  0  0  4           0  0  0
   -3.9180    3.4182    5.6681 C   0  0  0  0  0  4           0  0  0
   -1.5836    2.5146    4.0159 C   0  0  0  0  0  4           0  0  0
    1.7895   -2.5152   -0.0232 C   0  0  0  0  0  4           0  0  0
    0.1888   -3.8910   -1.0894 C   0  0  0  0  0  4           0  0  0
    0.0000    0.0000    0.0000 C   0  0  0  0  0  4           0  0  0
    1.7702    2.5201    0.0095 C   0  0  0  0  0  4           0  0  0
    2.5114    3.4050   -0.9886 C   0  0  0  0  0  4           0  0  0
    2.3981    2.9479   -2.4436 C   0  0  0  0  0  4           0  0  0
    3.1580    3.8724   -3.3804 C   0  0  0  0  0  4           0  0  0
  1  8  1  0     0  0
  2 23  2  0     0  0
  3 24  2  0     0  0
  4 25  1  0     0  0
  4 26  1  0     0  0
  5 23  1  0     0  0
  6  9  1  0     0  0
  6 10  1  0     0  0
  6 27  1  0     0  0
  7  8  1  0     0  0
  7  9  2  0     0  0
  8 10  2  0     0  0
  9 28  1  0     0  0
 10 25  1  0     0  0
 11 12  1  0     0  0
 11 16  2  0     0  0
 11 23  1  0     0  0
 12 17  2  0     0  0
 12 24  1  0     0  0
 13 15  2  0     0  0
 13 18  1  0     0  0
 13 24  1  0     0  0
 14 15  1  0     0  0
 14 19  2  0     0  0
 14 27  1  0     0  0
 16 21  1  0     0  0
 17 22  1  0     0  0
 18 20  2  0     0  0
 19 20  1  0     0  0
 21 22  2  0     0  0
 28 29  1  0     0  0
 29 30  1  0     0  0
 30 31  1  0     0  0
M  END
> <standard_type>
pIC50

> <# Confs.>
25

> <canonical_smiles>
ClC(N=C1CCCC)=C(COC)N1CC2=CC=CC(C(C3=CC=CC=C3C(O)=O)=O)=C2

> <standard_relation>
=

> <Publication_ID>
nan

> <predicted_activity_value>
6.958607314841775

> <actual_activity_value>
6.823908740944319

> <Compound>
10

> <standard_units>
nM

> hash
12268670834815209692

$$$$
9
XXILIB    08252103503D 0   0.00000     0.00000

 31 33  0     1  0            999 V2000
    5.0107   -1.4785    0.0029 Cl  0  0  0  0  0  1           0  0  0
   -0.0087   -2.6208    6.8236 O   0  0  0  0  0  2           0  0  0
   -0.8528   -3.4827    3.7161 O   0  0  0  0  0  2           0  0  0
    0.7417   -2.5857   -0.9804 O   0  0  0  0  0  2           0  0  0
   -0.8421   -4.6996    7.2482 O   0  0  0  0  0  2           0  0  0
    1.4518    0.0000    0.0000 N   0  0  0  0  0  3           0  0  0
    3.5355    0.7714   -0.0002 N   0  0  0  0  0  3           0  0  0
    3.5508   -0.5984   -0.0049 C   0  0  0  0  0  4           0  0  0
    2.2641    1.1177    0.0000 C   0  0  0  0  0  4           0  0  0
    2.2681   -1.1139   -0.0135 C   0  0  0  0  0  4           0  0  0
   -2.2990   -3.1113    6.3758 C   0  0  0  0  0  4           0  0  0
   -2.5976   -2.6906    5.0680 C   0  0  0  0  0  4           0  0  0
   -1.2883   -1.2140    3.3739 C   0  0  0  0  0  4           0  0  0
   -0.5420   -0.0000    1.3966 C   0  0  0  0  0  4           0  0  0
   -0.7994   -1.2096    2.0599 C   0  0  0  0  0  4           0  0  0
   -3.3059   -3.2464    7.3398 C   0  0  0  0  0  4           0  0  0
   -3.9377   -2.4235    4.7483 C   0  0  0  0  0  4           0  0  0
   -1.5206   -0.0007    4.0297 C   0  0  0  0  0  4           0  0  0
   -0.7731    1.2065    2.0691 C   0  0  0  0  0  4           0  0  0
   -1.2619    1.2045    3.3759 C   0  0  0  0  0  4           0  0  0
   -4.6288   -2.9753    7.0022 C   0  0  0  0  0  4           0  0  0
   -4.9438   -2.5674    5.7090 C   0  0  0  0  0  4           0  0  0
   -0.9311   -3.4182    6.8273 C   0  0  0  0  0  4           0  0  0
   -1.5399   -2.5146    4.0328 C   0  0  0  0  0  4           0  0  0
    1.7895   -2.5152   -0.0232 C   0  0  0  0  0  4           0  0  0
    0.1888   -3.8910   -1.0894 C   0  0  0  0  0  4           0  0  0
    0.0000   -0.0000    0.0000 C   0  0  0  0  0  4           0  0  0
    1.7702    2.5201    0.0095 C   0  0  0  0  0  4           0  0  0
    2.5114    3.4050   -0.9886 C   0  0  0  0  0  4           0  0  0
    2.3981    2.9479   -2.4436 C   0  0  0  0  0  4           0  0  0
    3.1580    3.8724   -3.3804 C   0  0  0  0  0  4           0  0  0
  1  8  1  0     0  0
  2 23  2  0     0  0
  3 24  2  0     0  0
  4 25  1  0     0  0
  4 26  1  0     0  0
  5 23  1  0     0  0
  6  9  1  0     0  0
  6 10  1  0     0  0
  6 27  1  0     0  0
  7  8  1  0     0  0
  7  9  2  0     0  0
  8 10  2  0     0  0
  9 28  1  0     0  0
 10 25  1  0     0  0
 11 12  1  0     0  0
 11 16  2  0     0  0
 11 23  1  0     0  0
 12 17  2  0     0  0
 12 24  1  0     0  0
 13 15  2  0     0  0
 13 18  1  0     0  0
 13 24  1  0     0  0
 14 15  1  0     0  0
 14 19  2  0     0  0
 14 27  1  0     0  0
 16 21  1  0     0  0
 17 22  1  0     0  0
 18 20  2  0     0  0
 19 20  1  0     0  0
 21 22  2  0     0  0
 28 29  1  0     0  0
 29 30  1  0     0  0
 30 31  1  0     0  0
M  END
> <standard_type>
pIC50

> <# Confs.>
25

> <canonical_smiles>
ClC(N=C1CCCC)=C(COC)N1CC2=CC=CC(C(C3=CC=CC=C3C(O)=O)=O)=C2

> <standard_relation>
=

> <Publication_ID>
nan

> <predicted_activity_value>
6.958607314841775

> <actual_activity_value>
6.823908740944319

> <Compound>
10

> <standard_units>
nM

> hash
12268670834815209692

$$$$
9
XXILIB    08252103503D 0   0.00000     0.00000

 31 33  0     1  0            999 V2000
    5.0107    1.4785   -0.0029 Cl  0  0  0  0  0  1           0  0  0
   -4.3798    2.0743    3.4918 O   0  0  0  0  0  2           0  0  0
   -1.3306    3.5489    3.4028 O   0  0  0  0  0  2           0  0  0
    0.7510    2.6022   -0.9429 O   0  0  0  0  0  2           0  0  0
   -5.6391    3.3222    4.9248 O   0  0  0  0  0  2           0  0  0
    1.4518    0.0000    0.0000 N   0  0  0  0  0  3           0  0  0
    3.5355   -0.7714    0.0002 N   0  0  0  0  0  3           0  0  0
    3.5508    0.5984    0.0049 C   0  0  0  0  0  4           0  0  0
    2.2641   -1.1177    0.0000 C   0  0  0  0  0  4           0  0  0
    2.2681    1.1139    0.0135 C   0  0  0  0  0  4           0  0  0
   -3.5248    2.6676    5.6375 C   0  0  0  0  0  4           0  0  0
   -2.1412    2.6132    5.3945 C   0  0  0  0  0  4           0  0  0
   -1.3248    1.2140    3.3597 C   0  0  0  0  0  4           0  0  0
   -0.5420    0.0000    1.3966 C   0  0  0  0  0  4           0  0  0
   -0.7994    1.2096    2.0599 C   0  0  0  0  0  4           0  0  0
   -4.0279    2.7353    6.9428 C   0  0  0  0  0  4           0  0  0
   -1.2737    2.6442    6.4971 C   0  0  0  0  0  4           0  0  0
   -1.5957    0.0007    4.0005 C   0  0  0  0  0  4           0  0  0
   -0.8250   -1.2065    2.0490 C   0  0  0  0  0  4           0  0  0
   -1.3457   -1.2045    3.3434 C   0  0  0  0  0  4           0  0  0
   -3.1501    2.7638    8.0227 C   0  0  0  0  0  4           0  0  0
   -1.7766    2.7209    7.7999 C   0  0  0  0  0  4           0  0  0
   -4.5302    2.6400    4.5615 C   0  0  0  0  0  4           0  0  0
   -1.5836    2.5146    4.0159 C   0  0  0  0  0  4           0  0  0
    1.7895    2.5152    0.0232 C   0  0  0  0  0  4           0  0  0
    0.1992    3.9092   -1.0348 C   0  0  0  0  0  4           0  0  0
    0.0000    0.0000    0.0000 C   0  0  0  0  0  4           0  0  0
    1.7702   -2.5201   -0.0095 C   0  0  0  0  0  4           0  0  0
    2.5114   -3.4050    0.9886 C   0  0  0  0  0  4           0  0  0
    2.3981   -2.9479    2.4436 C   0  0  0  0  0  4           0  0  0
    3.1580   -3.8724    3.3804 C   0  0  0  0  0  4           0  0  0
  1  8  1  0     0  0
  2 23  2  0     0  0
  3 24  2  0     0  0
  4 25  1  0     0  0
  4 26  1  0     0  0
  5 23  1  0     0  0
  6  9  1  0     0  0
  6 10  1  0     0  0
  6 27  1  0     0  0
  7  8  1  0     0  0
  7  9  2  0     0  0
  8 10  2  0     0  0
  9 28  1  0     0  0
 10 25  1  0     0  0
 11 12  1  0     0  0
 11 16  2  0     0  0
 11 23  1  0     0  0
 12 17  2  0     0  0
 12 24  1  0     0  0
 13 15  2  0     0  0
 13 18  1  0     0  0
 13 24  1  0     0  0
 14 15  1  0     0  0
 14 19  2  0     0  0
 14 27  1  0     0  0
 16 21  1  0     0  0
 17 22  1  0     0  0
 18 20  2  0     0  0
 19 20  1  0     0  0
 21 22  2  0     0  0
 28 29  1  0     0  0
 29 30  1  0     0  0
 30 31  1  0     0  0
M  END
> <standard_type>
pIC50

> <# Confs.>
25

> <canonical_smiles>
ClC(N=C1CCCC)=C(COC)N1CC2=CC=CC(C(C3=CC=CC=C3C(O)=O)=O)=C2

> <standard_relation>
=

> <Publication_ID>
nan

> <predicted_activity_value>
6.958607314841775

> <actual_activity_value>
6.823908740944319

> <Compound>
10

> <standard_units>
nM

> hash
12268670834815209692

$$$$
9
XXILIB    08252103503D 0   0.00000     0.00000

 31 33  0     1  0            999 V2000
    5.0107    1.4785   -0.0029 Cl  0  0  0  0  0  1           0  0  0
   -4.5966    2.6208    5.0432 O   0  0  0  0  0  2           0  0  0
   -1.8772    3.4827    3.3186 O   0  0  0  0  0  2           0  0  0
    1.6498    2.8931    1.3859 O   0  0  0  0  0  2           0  0  0
   -4.2677    4.6996    5.9188 O   0  0  0  0  0  2           0  0  0
    1.4518    0.0000    0.0000 N   0  0  0  0  0  3           0  0  0
    3.5355   -0.7714    0.0002 N   0  0  0  0  0  3           0  0  0
    3.5508    0.5984    0.0049 C   0  0  0  0  0  4           0  0  0
    2.2641   -1.1177    0.0000 C   0  0  0  0  0  4           0  0  0
    2.2681    1.1139    0.0135 C   0  0  0  0  0  4           0  0  0
   -2.6036    3.1113    6.2576 C   0  0  0  0  0  4           0  0  0
   -1.5010    2.6906    5.4935 C   0  0  0  0  0  4           0  0  0
   -1.3248    1.2140    3.3597 C   0  0  0  0  0  4           0  0  0
   -0.5420    0.0000    1.3966 C   0  0  0  0  0  4           0  0  0
   -0.7994    1.2096    2.0599 C   0  0  0  0  0  4           0  0  0
   -2.5106    3.2464    7.6484 C   0  0  0  0  0  4           0  0  0
   -0.2961    2.4235    6.1615 C   0  0  0  0  0  4           0  0  0
   -1.5957    0.0007    4.0005 C   0  0  0  0  0  4           0  0  0
   -0.8250   -1.2065    2.0490 C   0  0  0  0  0  4           0  0  0
   -1.3457   -1.2045    3.3434 C   0  0  0  0  0  4           0  0  0
   -1.3063    2.9753    8.2915 C   0  0  0  0  0  4           0  0  0
   -0.2014    2.5674    7.5494 C   0  0  0  0  0  4           0  0  0
   -3.9180    3.4182    5.6681 C   0  0  0  0  0  4           0  0  0
   -1.5836    2.5146    4.0159 C   0  0  0  0  0  4           0  0  0
    1.7895    2.5152    0.0232 C   0  0  0  0  0  4           0  0  0
    1.1918    4.2306    1.5372 C   0  0  0  0  0  4           0  0  0
    0.0000    0.0000    0.0000 C   0  0  0  0  0  4           0  0  0
    1.7702   -2.5201   -0.0095 C   0  0  0  0  0  4           0  0  0
    2.5239   -3.3959   -1.0062 C   0  0  0  0  0  4           0  0  0
    2.4288   -2.9255   -2.4583 C   0  0  0  0  0  4           0  0  0
    3.2004   -3.8416   -3.3938 C   0  0  0  0  0  4           0  0  0
  1  8  1  0     0  0
  2 23  2  0     0  0
  3 24  2  0     0  0
  4 25  1  0     0  0
  4 26  1  0     0  0
  5 23  1  0     0  0
  6  9  1  0     0  0
  6 10  1  0     0  0
  6 27  1  0     0  0
  7  8  1  0     0  0
  7  9  2  0     0  0
  8 10  2  0     0  0
  9 28  1  0     0  0
 10 25  1  0     0  0
 11 12  1  0     0  0
 11 16  2  0     0  0
 11 23  1  0     0  0
 12 17  2  0     0  0
 12 24  1  0     0  0
 13 15  2  0     0  0
 13 18  1  0     0  0
 13 24  1  0     0  0
 14 15  1  0     0  0
 14 19  2  0     0  0
 14 27  1  0     0  0
 16 21  1  0     0  0
 17 22  1  0     0  0
 18 20  2  0     0  0
 19 20  1  0     0  0
 21 22  2  0     0  0
 28 29  1  0     0  0
 29 30  1  0     0  0
 30 31  1  0     0  0
M  END
> <standard_type>
pIC50

> <# Confs.>
25

> <canonical_smiles>
ClC(N=C1CCCC)=C(COC)N1CC2=CC=CC(C(C3=CC=CC=C3C(O)=O)=O)=C2

> <standard_relation>
=

> <Publication_ID>
nan

> <predicted_activity_value>
6.958607314841775

> <actual_activity_value>
6.823908740944319

> <Compound>
10

> <standard_units>
nM

> hash
12268670834815209692

$$$$
9
XXILIB    08252103503D 0   0.00000     0.00000

 31 33  0     1  0            999 V2000
    5.0107    1.4785   -0.0029 Cl  0  0  0  0  0  1           0  0  0
   -4.5966    2.6208    5.0432 O   0  0  0  0  0  2           0  0  0
   -1.8772    3.4827    3.3186 O   0  0  0  0  0  2           0  0  0
    1.6498    2.8931    1.3859 O   0  0  0  0  0  2           0  0  0
   -4.2677    4.6996    5.9188 O   0  0  0  0  0  2           0  0  0
    1.4518    0.0000    0.0000 N   0  0  0  0  0  3           0  0  0
    3.5355   -0.7714    0.0002 N   0  0  0  0  0  3           0  0  0
    3.5508    0.5984    0.0049 C   0  0  0  0  0  4           0  0  0
    2.2641   -1.1177    0.0000 C   0  0  0  0  0  4           0  0  0
    2.2681    1.1139    0.0135 C   0  0  0  0  0  4           0  0  0
   -2.6036    3.1113    6.2576 C   0  0  0  0  0  4           0  0  0
   -1.5010    2.6906    5.4935 C   0  0  0  0  0  4           0  0  0
   -1.3248    1.2140    3.3597 C   0  0  0  0  0  4           0  0  0
   -0.5420    0.0000    1.3966 C   0  0  0  0  0  4           0  0  0
   -0.7994    1.2096    2.0599 C   0  0  0  0  0  4           0  0  0
   -2.5106    3.2464    7.6484 C   0  0  0  0  0  4           0  0  0
   -0.2961    2.4235    6.1615 C   0  0  0  0  0  4           0  0  0
   -1.5957    0.0007    4.0005 C   0  0  0  0  0  4           0  0  0
   -0.8250   -1.2065    2.0490 C   0  0  0  0  0  4           0  0  0
   -1.3457   -1.2045    3.3434 C   0  0  0  0  0  4           0  0  0
   -1.3063    2.9753    8.2915 C   0  0  0  0  0  4           0  0  0
   -0.2014    2.5674    7.5494 C   0  0  0  0  0  4           0  0  0
   -3.9180    3.4182    5.6681 C   0  0  0  0  0  4           0  0  0
   -1.5836    2.5146    4.0159 C   0  0  0  0  0  4           0  0  0
    1.7895    2.5152    0.0232 C   0  0  0  0  0  4           0  0  0
    1.1918    4.2306    1.5372 C   0  0  0  0  0  4           0  0  0
    0.0000    0.0000    0.0000 C   0  0  0  0  0  4           0  0  0
    1.7702   -2.5201   -0.0095 C   0  0  0  0  0  4           0  0  0
    2.5239   -3.3959   -1.0062 C   0  0  0  0  0  4           0  0  0
    2.0514   -4.8497   -1.0528 C   0  0  0  0  0  4           0  0  0
    2.8433   -5.6623   -2.0640 C   0  0  0  0  0  4           0  0  0
  1  8  1  0     0  0
  2 23  2  0     0  0
  3 24  2  0     0  0
  4 25  1  0     0  0
  4 26  1  0     0  0
  5 23  1  0     0  0
  6  9  1  0     0  0
  6 10  1  0     0  0
  6 27  1  0     0  0
  7  8  1  0     0  0
  7  9  2  0     0  0
  8 10  2  0     0  0
  9 28  1  0     0  0
 10 25  1  0     0  0
 11 12  1  0     0  0
 11 16  2  0     0  0
 11 23  1  0     0  0
 12 17  2  0     0  0
 12 24  1  0     0  0
 13 15  2  0     0  0
 13 18  1  0     0  0
 13 24  1  0     0  0
 14 15  1  0     0  0
 14 19  2  0     0  0
 14 27  1  0     0  0
 16 21  1  0     0  0
 17 22  1  0     0  0
 18 20  2  0     0  0
 19 20  1  0     0  0
 21 22  2  0     0  0
 28 29  1  0     0  0
 29 30  1  0     0  0
 30 31  1  0     0  0
M  END
> <standard_type>
pIC50

> <# Confs.>
25

> <canonical_smiles>
ClC(N=C1CCCC)=C(COC)N1CC2=CC=CC(C(C3=CC=CC=C3C(O)=O)=O)=C2

> <standard_relation>
=

> <Publication_ID>
nan

> <predicted_activity_value>
6.958607314841775

> <actual_activity_value>
6.823908740944319

> <Compound>
10

> <standard_units>
nM

> hash
12268670834815209692

$$$$
9
XXILIB    08252103503D 0   0.00000     0.00000

 31 33  0     1  0            999 V2000
    5.0107   -1.4785    0.0029 Cl  0  0  0  0  0  1           0  0  0
    1.0822   -4.3215    3.8529 O   0  0  0  0  0  2           0  0  0
   -1.4203   -2.5943    5.2530 O   0  0  0  0  0  2           0  0  0
    0.7417   -2.5857   -0.9804 O   0  0  0  0  0  2           0  0  0
    0.0192   -6.0167    4.9450 O   0  0  0  0  0  2           0  0  0
    1.4518    0.0000    0.0000 N   0  0  0  0  0  3           0  0  0
    3.5355    0.7714   -0.0002 N   0  0  0  0  0  3           0  0  0
    3.5508   -0.5984   -0.0049 C   0  0  0  0  0  4           0  0  0
    2.2641    1.1177    0.0000 C   0  0  0  0  0  4           0  0  0
    2.2681   -1.1139   -0.0135 C   0  0  0  0  0  4           0  0  0
   -1.1578   -4.9031    3.2773 C   0  0  0  0  0  4           0  0  0
   -1.9342   -3.7311    3.2674 C   0  0  0  0  0  4           0  0  0
   -1.2883   -1.2140    3.3739 C   0  0  0  0  0  4           0  0  0
   -0.5420    0.0000    1.3966 C   0  0  0  0  0  4           0  0  0
   -0.7994   -1.2096    2.0599 C   0  0  0  0  0  4           0  0  0
   -1.5599   -6.0433    2.5702 C   0  0  0  0  0  4           0  0  0
   -3.1190   -3.7284    2.5153 C   0  0  0  0  0  4           0  0  0
   -1.5206   -0.0007    4.0297 C   0  0  0  0  0  4           0  0  0
   -0.7731    1.2065    2.0691 C   0  0  0  0  0  4           0  0  0
   -1.2619    1.2045    3.3759 C   0  0  0  0  0  4           0  0  0
   -2.7393   -6.0197    1.8314 C   0  0  0  0  0  4           0  0  0
   -3.5153   -4.8644    1.8021 C   0  0  0  0  0  4           0  0  0
    0.1019   -5.0247    4.0306 C   0  0  0  0  0  4           0  0  0
   -1.5399   -2.5146    4.0328 C   0  0  0  0  0  4           0  0  0
    1.7895   -2.5152   -0.0232 C   0  0  0  0  0  4           0  0  0
    0.1888   -3.8910   -1.0894 C   0  0  0  0  0  4           0  0  0
    0.0000   -0.0000    0.0000 C   0  0  0  0  0  4           0  0  0
    1.7702    2.5201    0.0095 C   0  0  0  0  0  4           0  0  0
    2.5114    3.4050   -0.9886 C   0  0  0  0  0  4           0  0  0
    2.3981    2.9479   -2.4436 C   0  0  0  0  0  4           0  0  0
    3.1580    3.8724   -3.3804 C   0  0  0  0  0  4           0  0  0
  1  8  1  0     0  0
  2 23  2  0     0  0
  3 24  2  0     0  0
  4 25  1  0     0  0
  4 26  1  0     0  0
  5 23  1  0     0  0
  6  9  1  0     0  0
  6 10  1  0     0  0
  6 27  1  0     0  0
  7  8  1  0     0  0
  7  9  2  0     0  0
  8 10  2  0     0  0
  9 28  1  0     0  0
 10 25  1  0     0  0
 11 12  1  0     0  0
 11 16  2  0     0  0
 11 23  1  0     0  0
 12 17  2  0     0  0
 12 24  1  0     0  0
 13 15  2  0     0  0
 13 18  1  0     0  0
 13 24  1  0     0  0
 14 15  1  0     0  0
 14 19  2  0     0  0
 14 27  1  0     0  0
 16 21  1  0     0  0
 17 22  1  0     0  0
 18 20  2  0     0  0
 19 20  1  0     0  0
 21 22  2  0     0  0
 28 29  1  0     0  0
 29 30  1  0     0  0
 30 31  1  0     0  0
M  END
> <standard_type>
pIC50

> <# Confs.>
25

> <canonical_smiles>
ClC(N=C1CCCC)=C(COC)N1CC2=CC=CC(C(C3=CC=CC=C3C(O)=O)=O)=C2

> <standard_relation>
=

> <Publication_ID>
nan

> <predicted_activity_value>
6.958607314841775

> <actual_activity_value>
6.823908740944319

> <Compound>
10

> <standard_units>
nM

> hash
12268670834815209692

$$$$
9
XXILIB    08252103503D 0   0.00000     0.00000

 31 33  0     1  0            999 V2000
    5.0107   -1.4785    0.0029 Cl  0  0  0  0  0  1           0  0  0
    0.7868    1.6776    5.9788 O   0  0  0  0  0  2           0  0  0
   -1.3306    3.5489    3.4028 O   0  0  0  0  0  2           0  0  0
    0.7417   -2.5857   -0.9804 O   0  0  0  0  0  2           0  0  0
    0.7016    3.7178    6.9921 O   0  0  0  0  0  2           0  0  0
    1.4518    0.0000    0.0000 N   0  0  0  0  0  3           0  0  0
    3.5355    0.7714   -0.0002 N   0  0  0  0  0  3           0  0  0
    3.5508   -0.5984   -0.0049 C   0  0  0  0  0  4           0  0  0
    2.2641    1.1177    0.0000 C   0  0  0  0  0  4           0  0  0
    2.2681   -1.1139   -0.0135 C   0  0  0  0  0  4           0  0  0
   -1.3159    2.6574    6.5318 C   0  0  0  0  0  4           0  0  0
   -2.1412    2.6132    5.3945 C   0  0  0  0  0  4           0  0  0
   -1.3248    1.2140    3.3597 C   0  0  0  0  0  4           0  0  0
   -0.5420    0.0000    1.3966 C   0  0  0  0  0  4           0  0  0
   -0.7994    1.2096    2.0599 C   0  0  0  0  0  4           0  0  0
   -1.8606    2.7748    7.8167 C   0  0  0  0  0  4           0  0  0
   -3.5306    2.6744    5.5821 C   0  0  0  0  0  4           0  0  0
   -1.5957    0.0007    4.0005 C   0  0  0  0  0  4           0  0  0
   -0.8250   -1.2065    2.0490 C   0  0  0  0  0  4           0  0  0
   -1.3457   -1.2045    3.3434 C   0  0  0  0  0  4           0  0  0
   -3.2415    2.8352    7.9806 C   0  0  0  0  0  4           0  0  0
   -4.0741    2.7825    6.8662 C   0  0  0  0  0  4           0  0  0
    0.1541    2.6029    6.4590 C   0  0  0  0  0  4           0  0  0
   -1.5836    2.5146    4.0159 C   0  0  0  0  0  4           0  0  0
    1.7895   -2.5152   -0.0232 C   0  0  0  0  0  4           0  0  0
    0.1888   -3.8910   -1.0894 C   0  0  0  0  0  4           0  0  0
    0.0000    0.0000    0.0000 C   0  0  0  0  0  4           0  0  0
    1.7702    2.5201    0.0095 C   0  0  0  0  0  4           0  0  0
    2.5114    3.4050   -0.9886 C   0  0  0  0  0  4           0  0  0
    2.3981    2.9479   -2.4436 C   0  0  0  0  0  4           0  0  0
    3.1580    3.8724   -3.3804 C   0  0  0  0  0  4           0  0  0
  1  8  1  0     0  0
  2 23  2  0     0  0
  3 24  2  0     0  0
  4 25  1  0     0  0
  4 26  1  0     0  0
  5 23  1  0     0  0
  6  9  1  0     0  0
  6 10  1  0     0  0
  6 27  1  0     0  0
  7  8  1  0     0  0
  7  9  2  0     0  0
  8 10  2  0     0  0
  9 28  1  0     0  0
 10 25  1  0     0  0
 11 12  1  0     0  0
 11 16  2  0     0  0
 11 23  1  0     0  0
 12 17  2  0     0  0
 12 24  1  0     0  0
 13 15  2  0     0  0
 13 18  1  0     0  0
 13 24  1  0     0  0
 14 15  1  0     0  0
 14 19  2  0     0  0
 14 27  1  0     0  0
 16 21  1  0     0  0
 17 22  1  0     0  0
 18 20  2  0     0  0
 19 20  1  0     0  0
 21 22  2  0     0  0
 28 29  1  0     0  0
 29 30  1  0     0  0
 30 31  1  0     0  0
M  END
> <standard_type>
pIC50

> <# Confs.>
25

> <canonical_smiles>
ClC(N=C1CCCC)=C(COC)N1CC2=CC=CC(C(C3=CC=CC=C3C(O)=O)=O)=C2

> <standard_relation>
=

> <Publication_ID>
nan

> <predicted_activity_value>
6.958607314841775

> <actual_activity_value>
6.823908740944319

> <Compound>
10

> <standard_units>
nM

> hash
12268670834815209692

$$$$
9
XXILIB    08252103503D 0   0.00000     0.00000

 31 33  0     1  0            999 V2000
    5.0107    1.4785   -0.0029 Cl  0  0  0  0  0  1           0  0  0
   -4.5966    2.6208    5.0432 O   0  0  0  0  0  2           0  0  0
   -1.8772    3.4827    3.3186 O   0  0  0  0  0  2           0  0  0
    0.7510    2.6022   -0.9429 O   0  0  0  0  0  2           0  0  0
   -4.2677    4.6996    5.9188 O   0  0  0  0  0  2           0  0  0
    1.4518    0.0000    0.0000 N   0  0  0  0  0  3           0  0  0
    3.5355   -0.7714    0.0002 N   0  0  0  0  0  3           0  0  0
    3.5508    0.5984    0.0049 C   0  0  0  0  0  4           0  0  0
    2.2641   -1.1177    0.0000 C   0  0  0  0  0  4           0  0  0
    2.2681    1.1139    0.0135 C   0  0  0  0  0  4           0  0  0
   -2.6036    3.1113    6.2576 C   0  0  0  0  0  4           0  0  0
   -1.5010    2.6906    5.4935 C   0  0  0  0  0  4           0  0  0
   -1.3248    1.2140    3.3597 C   0  0  0  0  0  4           0  0  0
   -0.5420    0.0000    1.3966 C   0  0  0  0  0  4           0  0  0
   -0.7994    1.2096    2.0599 C   0  0  0  0  0  4           0  0  0
   -2.5106    3.2464    7.6484 C   0  0  0  0  0  4           0  0  0
   -0.2961    2.4235    6.1615 C   0  0  0  0  0  4           0  0  0
   -1.5957    0.0007    4.0005 C   0  0  0  0  0  4           0  0  0
   -0.8250   -1.2065    2.0490 C   0  0  0  0  0  4           0  0  0
   -1.3457   -1.2045    3.3434 C   0  0  0  0  0  4           0  0  0
   -1.3063    2.9753    8.2915 C   0  0  0  0  0  4           0  0  0
   -0.2014    2.5674    7.5494 C   0  0  0  0  0  4           0  0  0
   -3.9180    3.4182    5.6681 C   0  0  0  0  0  4           0  0  0
   -1.5836    2.5146    4.0159 C   0  0  0  0  0  4           0  0  0
    1.7895    2.5152    0.0232 C   0  0  0  0  0  4           0  0  0
    0.1992    3.9092   -1.0348 C   0  0  0  0  0  4           0  0  0
    0.0000    0.0000    0.0000 C   0  0  0  0  0  4           0  0  0
    1.7702   -2.5201   -0.0095 C   0  0  0  0  0  4           0  0  0
    2.5114   -3.4050    0.9886 C   0  0  0  0  0  4           0  0  0
    2.3981   -2.9479    2.4436 C   0  0  0  0  0  4           0  0  0
    3.1580   -3.8724    3.3804 C   0  0  0  0  0  4           0  0  0
  1  8  1  0     0  0
  2 23  2  0     0  0
  3 24  2  0     0  0
  4 25  1  0     0  0
  4 26  1  0     0  0
  5 23  1  0     0  0
  6  9  1  0     0  0
  6 10  1  0     0  0
  6 27  1  0     0  0
  7  8  1  0     0  0
  7  9  2  0     0  0
  8 10  2  0     0  0
  9 28  1  0     0  0
 10 25  1  0     0  0
 11 12  1  0     0  0
 11 16  2  0     0  0
 11 23  1  0     0  0
 12 17  2  0     0  0
 12 24  1  0     0  0
 13 15  2  0     0  0
 13 18  1  0     0  0
 13 24  1  0     0  0
 14 15  1  0     0  0
 14 19  2  0     0  0
 14 27  1  0     0  0
 16 21  1  0     0  0
 17 22  1  0     0  0
 18 20  2  0     0  0
 19 20  1  0     0  0
 21 22  2  0     0  0
 28 29  1  0     0  0
 29 30  1  0     0  0
 30 31  1  0     0  0
M  END
> <standard_type>
pIC50

> <# Confs.>
25

> <canonical_smiles>
ClC(N=C1CCCC)=C(COC)N1CC2=CC=CC(C(C3=CC=CC=C3C(O)=O)=O)=C2

> <standard_relation>
=

> <Publication_ID>
nan

> <predicted_activity_value>
6.958607314841775

> <actual_activity_value>
6.823908740944319

> <Compound>
10

> <standard_units>
nM

> hash
12268670834815209692

$$$$
9
XXILIB    08252103503D 0   0.00000     0.00000

 31 33  0     1  0            999 V2000
    5.0107    1.4785   -0.0029 Cl  0  0  0  0  0  1           0  0  0
   -4.3798    2.0743    3.4918 O   0  0  0  0  0  2           0  0  0
   -1.3306    3.5489    3.4028 O   0  0  0  0  0  2           0  0  0
    0.7510    2.6022   -0.9429 O   0  0  0  0  0  2           0  0  0
   -5.6391    3.3222    4.9248 O   0  0  0  0  0  2           0  0  0
    1.4518    0.0000    0.0000 N   0  0  0  0  0  3           0  0  0
    3.5355   -0.7714    0.0002 N   0  0  0  0  0  3           0  0  0
    3.5508    0.5984    0.0049 C   0  0  0  0  0  4           0  0  0
    2.2641   -1.1177    0.0000 C   0  0  0  0  0  4           0  0  0
    2.2681    1.1139    0.0135 C   0  0  0  0  0  4           0  0  0
   -3.5248    2.6676    5.6375 C   0  0  0  0  0  4           0  0  0
   -2.1412    2.6132    5.3945 C   0  0  0  0  0  4           0  0  0
   -1.3248    1.2140    3.3597 C   0  0  0  0  0  4           0  0  0
   -0.5420    0.0000    1.3966 C   0  0  0  0  0  4           0  0  0
   -0.7994    1.2096    2.0599 C   0  0  0  0  0  4           0  0  0
   -4.0279    2.7353    6.9428 C   0  0  0  0  0  4           0  0  0
   -1.2737    2.6442    6.4971 C   0  0  0  0  0  4           0  0  0
   -1.5957    0.0007    4.0005 C   0  0  0  0  0  4           0  0  0
   -0.8250   -1.2065    2.0490 C   0  0  0  0  0  4           0  0  0
   -1.3457   -1.2045    3.3434 C   0  0  0  0  0  4           0  0  0
   -3.1501    2.7638    8.0227 C   0  0  0  0  0  4           0  0  0
   -1.7766    2.7209    7.7999 C   0  0  0  0  0  4           0  0  0
   -4.5302    2.6400    4.5615 C   0  0  0  0  0  4           0  0  0
   -1.5836    2.5146    4.0159 C   0  0  0  0  0  4           0  0  0
    1.7895    2.5152    0.0232 C   0  0  0  0  0  4           0  0  0
    0.1992    3.9092   -1.0348 C   0  0  0  0  0  4           0  0  0
    0.0000    0.0000    0.0000 C   0  0  0  0  0  4           0  0  0
    1.7702   -2.5201   -0.0095 C   0  0  0  0  0  4           0  0  0
    1.5857   -3.0627   -1.4237 C   0  0  0  0  0  4           0  0  0
    1.0784   -4.5041   -1.4858 C   0  0  0  0  0  4           0  0  0
    0.9180   -4.9785   -2.9208 C   0  0  0  0  0  4           0  0  0
  1  8  1  0     0  0
  2 23  2  0     0  0
  3 24  2  0     0  0
  4 25  1  0     0  0
  4 26  1  0     0  0
  5 23  1  0     0  0
  6  9  1  0     0  0
  6 10  1  0     0  0
  6 27  1  0     0  0
  7  8  1  0     0  0
  7  9  2  0     0  0
  8 10  2  0     0  0
  9 28  1  0     0  0
 10 25  1  0     0  0
 11 12  1  0     0  0
 11 16  2  0     0  0
 11 23  1  0     0  0
 12 17  2  0     0  0
 12 24  1  0     0  0
 13 15  2  0     0  0
 13 18  1  0     0  0
 13 24  1  0     0  0
 14 15  1  0     0  0
 14 19  2  0     0  0
 14 27  1  0     0  0
 16 21  1  0     0  0
 17 22  1  0     0  0
 18 20  2  0     0  0
 19 20  1  0     0  0
 21 22  2  0     0  0
 28 29  1  0     0  0
 29 30  1  0     0  0
 30 31  1  0     0  0
M  END
> <standard_type>
pIC50

> <# Confs.>
25

> <canonical_smiles>
ClC(N=C1CCCC)=C(COC)N1CC2=CC=CC(C(C3=CC=CC=C3C(O)=O)=O)=C2

> <standard_relation>
=

> <Publication_ID>
nan

> <predicted_activity_value>
6.958607314841775

> <actual_activity_value>
6.823908740944319

> <Compound>
10

> <standard_units>
nM

> hash
12268670834815209692

$$$$
9
XXILIB    08252103503D 0   0.00000     0.00000

 31 33  0     1  0            999 V2000
    5.0107   -1.4785    0.0029 Cl  0  0  0  0  0  1           0  0  0
   -3.3979    4.3215    2.1143 O   0  0  0  0  0  2           0  0  0
   -2.4949    2.5943    4.8359 O   0  0  0  0  0  2           0  0  0
    1.6630   -2.9164    1.3341 O   0  0  0  0  0  2           0  0  0
   -3.3499    6.0167    3.6375 O   0  0  0  0  0  2           0  0  0
    1.4518   -0.0000   -0.0000 N   0  0  0  0  0  3           0  0  0
    3.5355    0.7714   -0.0002 N   0  0  0  0  0  3           0  0  0
    3.5508   -0.5984   -0.0049 C   0  0  0  0  0  4           0  0  0
    2.2641    1.1177    0.0000 C   0  0  0  0  0  4           0  0  0
    2.2681   -1.1139   -0.0135 C   0  0  0  0  0  4           0  0  0
   -1.3560    4.9031    3.2003 C   0  0  0  0  0  4           0  0  0
   -0.7762    3.7311    3.7168 C   0  0  0  0  0  4           0  0  0
   -1.3248    1.2140    3.3597 C   0  0  0  0  0  4           0  0  0
   -0.5420    0.0000    1.3966 C   0  0  0  0  0  4           0  0  0
   -0.7994    1.2096    2.0599 C   0  0  0  0  0  4           0  0  0
   -0.5822    6.0433    2.9496 C   0  0  0  0  0  4           0  0  0
    0.6058    3.7284    3.9608 C   0  0  0  0  0  4           0  0  0
   -1.5957    0.0007    4.0005 C   0  0  0  0  0  4           0  0  0
   -0.8250   -1.2065    2.0490 C   0  0  0  0  0  4           0  0  0
   -1.3457   -1.2045    3.3434 C   0  0  0  0  0  4           0  0  0
    0.7868    6.0197    3.1997 C   0  0  0  0  0  4           0  0  0
    1.3794    4.8644    3.7016 C   0  0  0  0  0  4           0  0  0
   -2.7942    5.0247    2.9067 C   0  0  0  0  0  4           0  0  0
   -1.5836    2.5146    4.0159 C   0  0  0  0  0  4           0  0  0
    1.7895   -2.5152   -0.0232 C   0  0  0  0  0  4           0  0  0
    1.2065   -4.2563    1.4670 C   0  0  0  0  0  4           0  0  0
    0.0000    0.0000    0.0000 C   0  0  0  0  0  4           0  0  0
    1.7702    2.5201    0.0095 C   0  0  0  0  0  4           0  0  0
    2.5114    3.4050   -0.9886 C   0  0  0  0  0  4           0  0  0
    2.0385    4.8591   -1.0160 C   0  0  0  0  0  4           0  0  0
    2.8177    5.6809   -2.0296 C   0  0  0  0  0  4           0  0  0
  1  8  1  0     0  0
  2 23  2  0     0  0
  3 24  2  0     0  0
  4 25  1  0     0  0
  4 26  1  0     0  0
  5 23  1  0     0  0
  6  9  1  0     0  0
  6 10  1  0     0  0
  6 27  1  0     0  0
  7  8  1  0     0  0
  7  9  2  0     0  0
  8 10  2  0     0  0
  9 28  1  0     0  0
 10 25  1  0     0  0
 11 12  1  0     0  0
 11 16  2  0     0  0
 11 23  1  0     0  0
 12 17  2  0     0  0
 12 24  1  0     0  0
 13 15  2  0     0  0
 13 18  1  0     0  0
 13 24  1  0     0  0
 14 15  1  0     0  0
 14 19  2  0     0  0
 14 27  1  0     0  0
 16 21  1  0     0  0
 17 22  1  0     0  0
 18 20  2  0     0  0
 19 20  1  0     0  0
 21 22  2  0     0  0
 28 29  1  0     0  0
 29 30  1  0     0  0
 30 31  1  0     0  0
M  END
> <standard_type>
pIC50

> <# Confs.>
25

> <canonical_smiles>
ClC(N=C1CCCC)=C(COC)N1CC2=CC=CC(C(C3=CC=CC=C3C(O)=O)=O)=C2

> <standard_relation>
=

> <Publication_ID>
nan

> <predicted_activity_value>
6.958607314841775

> <actual_activity_value>
6.823908740944319

> <Compound>
10

> <standard_units>
nM

> hash
12268670834815209692

$$$$
9
XXILIB    08252103503D 0   0.00000     0.00000

 31 33  0     1  0            999 V2000
    5.0107    1.4785   -0.0029 Cl  0  0  0  0  0  1           0  0  0
   -3.3979    4.3215    2.1143 O   0  0  0  0  0  2           0  0  0
   -2.4949    2.5943    4.8359 O   0  0  0  0  0  2           0  0  0
    0.7510    2.6022   -0.9429 O   0  0  0  0  0  2           0  0  0
   -3.3499    6.0167    3.6375 O   0  0  0  0  0  2           0  0  0
    1.4518    0.0000    0.0000 N   0  0  0  0  0  3           0  0  0
    3.5355   -0.7714    0.0002 N   0  0  0  0  0  3           0  0  0
    3.5508    0.5984    0.0049 C   0  0  0  0  0  4           0  0  0
    2.2641   -1.1177    0.0000 C   0  0  0  0  0  4           0  0  0
    2.2681    1.1139    0.0135 C   0  0  0  0  0  4           0  0  0
   -1.3560    4.9031    3.2003 C   0  0  0  0  0  4           0  0  0
   -0.7762    3.7311    3.7168 C   0  0  0  0  0  4           0  0  0
   -1.3248    1.2140    3.3597 C   0  0  0  0  0  4           0  0  0
   -0.5420    0.0000    1.3966 C   0  0  0  0  0  4           0  0  0
   -0.7994    1.2096    2.0599 C   0  0  0  0  0  4           0  0  0
   -0.5822    6.0433    2.9496 C   0  0  0  0  0  4           0  0  0
    0.6058    3.7284    3.9608 C   0  0  0  0  0  4           0  0  0
   -1.5957    0.0007    4.0005 C   0  0  0  0  0  4           0  0  0
   -0.8250   -1.2065    2.0490 C   0  0  0  0  0  4           0  0  0
   -1.3457   -1.2045    3.3434 C   0  0  0  0  0  4           0  0  0
    0.7868    6.0197    3.1997 C   0  0  0  0  0  4           0  0  0
    1.3794    4.8644    3.7016 C   0  0  0  0  0  4           0  0  0
   -2.7942    5.0247    2.9067 C   0  0  0  0  0  4           0  0  0
   -1.5836    2.5146    4.0159 C   0  0  0  0  0  4           0  0  0
    1.7895    2.5152    0.0232 C   0  0  0  0  0  4           0  0  0
    0.1992    3.9092   -1.0348 C   0  0  0  0  0  4           0  0  0
    0.0000    0.0000    0.0000 C   0  0  0  0  0  4           0  0  0
    1.7702   -2.5201   -0.0095 C   0  0  0  0  0  4           0  0  0
    2.5114   -3.4050    0.9886 C   0  0  0  0  0  4           0  0  0
    2.3981   -2.9479    2.4436 C   0  0  0  0  0  4           0  0  0
    3.1580   -3.8724    3.3804 C   0  0  0  0  0  4           0  0  0
  1  8  1  0     0  0
  2 23  2  0     0  0
  3 24  2  0     0  0
  4 25  1  0     0  0
  4 26  1  0     0  0
  5 23  1  0     0  0
  6  9  1  0     0  0
  6 10  1  0     0  0
  6 27  1  0     0  0
  7  8  1  0     0  0
  7  9  2  0     0  0
  8 10  2  0     0  0
  9 28  1  0     0  0
 10 25  1  0     0  0
 11 12  1  0     0  0
 11 16  2  0     0  0
 11 23  1  0     0  0
 12 17  2  0     0  0
 12 24  1  0     0  0
 13 15  2  0     0  0
 13 18  1  0     0  0
 13 24  1  0     0  0
 14 15  1  0     0  0
 14 19  2  0     0  0
 14 27  1  0     0  0
 16 21  1  0     0  0
 17 22  1  0     0  0
 18 20  2  0     0  0
 19 20  1  0     0  0
 21 22  2  0     0  0
 28 29  1  0     0  0
 29 30  1  0     0  0
 30 31  1  0     0  0
M  END
> <standard_type>
pIC50

> <# Confs.>
25

> <canonical_smiles>
ClC(N=C1CCCC)=C(COC)N1CC2=CC=CC(C(C3=CC=CC=C3C(O)=O)=O)=C2

> <standard_relation>
=

> <Publication_ID>
nan

> <predicted_activity_value>
6.958607314841775

> <actual_activity_value>
6.823908740944319

> <Compound>
10

> <standard_units>
nM

> hash
12268670834815209692

$$$$
9
XXILIB    08252103503D 0   0.00000     0.00000

 31 33  0     1  0            999 V2000
    5.0107    1.4785   -0.0029 Cl  0  0  0  0  0  1           0  0  0
   -4.5233   -2.5755    5.1589 O   0  0  0  0  0  2           0  0  0
   -1.8613   -3.4777    3.3409 O   0  0  0  0  0  2           0  0  0
    0.7510    2.6022   -0.9429 O   0  0  0  0  0  2           0  0  0
   -4.1941   -4.6730    5.9885 O   0  0  0  0  0  2           0  0  0
    1.4518    0.0000    0.0000 N   0  0  0  0  0  3           0  0  0
    3.5355   -0.7714    0.0002 N   0  0  0  0  0  3           0  0  0
    3.5508    0.5984    0.0049 C   0  0  0  0  0  4           0  0  0
    2.2641   -1.1177    0.0000 C   0  0  0  0  0  4           0  0  0
    2.2681    1.1139    0.0135 C   0  0  0  0  0  4           0  0  0
   -2.4996   -3.1117    6.3009 C   0  0  0  0  0  4           0  0  0
   -1.4162   -2.6968    5.5068 C   0  0  0  0  0  4           0  0  0
   -1.2883   -1.2140    3.3739 C   0  0  0  0  0  4           0  0  0
   -0.5420   -0.0000    1.3966 C   0  0  0  0  0  4           0  0  0
   -0.7994   -1.2096    2.0599 C   0  0  0  0  0  4           0  0  0
   -2.3545   -3.3001    7.6811 C   0  0  0  0  0  4           0  0  0
   -0.1852   -2.4606    6.1379 C   0  0  0  0  0  4           0  0  0
   -1.5206   -0.0007    4.0297 C   0  0  0  0  0  4           0  0  0
   -0.7731    1.2065    2.0691 C   0  0  0  0  0  4           0  0  0
   -1.2619    1.2045    3.3759 C   0  0  0  0  0  4           0  0  0
   -1.1244   -3.0614    8.2871 C   0  0  0  0  0  4           0  0  0
   -0.0435   -2.6403    7.5176 C   0  0  0  0  0  4           0  0  0
   -3.8369   -3.3912    5.7508 C   0  0  0  0  0  4           0  0  0
   -1.5399   -2.5146    4.0328 C   0  0  0  0  0  4           0  0  0
    1.7895    2.5152    0.0232 C   0  0  0  0  0  4           0  0  0
    0.1992    3.9092   -1.0348 C   0  0  0  0  0  4           0  0  0
    0.0000    0.0000    0.0000 C   0  0  0  0  0  4           0  0  0
    1.7702   -2.5201   -0.0095 C   0  0  0  0  0  4           0  0  0
    2.5114   -3.4050    0.9886 C   0  0  0  0  0  4           0  0  0
    2.3981   -2.9479    2.4436 C   0  0  0  0  0  4           0  0  0
    3.1580   -3.8724    3.3804 C   0  0  0  0  0  4           0  0  0
  1  8  1  0     0  0
  2 23  2  0     0  0
  3 24  2  0     0  0
  4 25  1  0     0  0
  4 26  1  0     0  0
  5 23  1  0     0  0
  6  9  1  0     0  0
  6 10  1  0     0  0
  6 27  1  0     0  0
  7  8  1  0     0  0
  7  9  2  0     0  0
  8 10  2  0     0  0
  9 28  1  0     0  0
 10 25  1  0     0  0
 11 12  1  0     0  0
 11 16  2  0     0  0
 11 23  1  0     0  0
 12 17  2  0     0  0
 12 24  1  0     0  0
 13 15  2  0     0  0
 13 18  1  0     0  0
 13 24  1  0     0  0
 14 15  1  0     0  0
 14 19  2  0     0  0
 14 27  1  0     0  0
 16 21  1  0     0  0
 17 22  1  0     0  0
 18 20  2  0     0  0
 19 20  1  0     0  0
 21 22  2  0     0  0
 28 29  1  0     0  0
 29 30  1  0     0  0
 30 31  1  0     0  0
M  END
> <standard_type>
pIC50

> <# Confs.>
25

> <canonical_smiles>
ClC(N=C1CCCC)=C(COC)N1CC2=CC=CC(C(C3=CC=CC=C3C(O)=O)=O)=C2

> <standard_relation>
=

> <Publication_ID>
nan

> <predicted_activity_value>
6.958607314841775

> <actual_activity_value>
6.823908740944319

> <Compound>
10

> <standard_units>
nM

> hash
12268670834815209692

$$$$
9
XXILIB    08252103503D 0   0.00000     0.00000

 31 33  0     1  0            999 V2000
    5.0107   -1.4785    0.0029 Cl  0  0  0  0  0  1           0  0  0
   -4.5966    2.6208    5.0432 O   0  0  0  0  0  2           0  0  0
   -1.8772    3.4827    3.3186 O   0  0  0  0  0  2           0  0  0
    1.6630   -2.9164    1.3341 O   0  0  0  0  0  2           0  0  0
   -4.2677    4.6996    5.9188 O   0  0  0  0  0  2           0  0  0
    1.4518   -0.0000   -0.0000 N   0  0  0  0  0  3           0  0  0
    3.5355    0.7714   -0.0002 N   0  0  0  0  0  3           0  0  0
    3.5508   -0.5984   -0.0049 C   0  0  0  0  0  4           0  0  0
    2.2641    1.1177    0.0000 C   0  0  0  0  0  4           0  0  0
    2.2681   -1.1139   -0.0135 C   0  0  0  0  0  4           0  0  0
   -2.6036    3.1113    6.2576 C   0  0  0  0  0  4           0  0  0
   -1.5010    2.6906    5.4935 C   0  0  0  0  0  4           0  0  0
   -1.3248    1.2140    3.3597 C   0  0  0  0  0  4           0  0  0
   -0.5420    0.0000    1.3966 C   0  0  0  0  0  4           0  0  0
   -0.7994    1.2096    2.0599 C   0  0  0  0  0  4           0  0  0
   -2.5106    3.2464    7.6484 C   0  0  0  0  0  4           0  0  0
   -0.2961    2.4235    6.1615 C   0  0  0  0  0  4           0  0  0
   -1.5957    0.0007    4.0005 C   0  0  0  0  0  4           0  0  0
   -0.8250   -1.2065    2.0490 C   0  0  0  0  0  4           0  0  0
   -1.3457   -1.2045    3.3434 C   0  0  0  0  0  4           0  0  0
   -1.3063    2.9753    8.2915 C   0  0  0  0  0  4           0  0  0
   -0.2014    2.5674    7.5494 C   0  0  0  0  0  4           0  0  0
   -3.9180    3.4182    5.6681 C   0  0  0  0  0  4           0  0  0
   -1.5836    2.5146    4.0159 C   0  0  0  0  0  4           0  0  0
    1.7895   -2.5152   -0.0232 C   0  0  0  0  0  4           0  0  0
    1.2065   -4.2563    1.4670 C   0  0  0  0  0  4           0  0  0
    0.0000    0.0000    0.0000 C   0  0  0  0  0  4           0  0  0
    1.7702    2.5201    0.0095 C   0  0  0  0  0  4           0  0  0
    2.5114    3.4050   -0.9886 C   0  0  0  0  0  4           0  0  0
    2.3981    2.9479   -2.4436 C   0  0  0  0  0  4           0  0  0
    3.1580    3.8724   -3.3804 C   0  0  0  0  0  4           0  0  0
  1  8  1  0     0  0
  2 23  2  0     0  0
  3 24  2  0     0  0
  4 25  1  0     0  0
  4 26  1  0     0  0
  5 23  1  0     0  0
  6  9  1  0     0  0
  6 10  1  0     0  0
  6 27  1  0     0  0
  7  8  1  0     0  0
  7  9  2  0     0  0
  8 10  2  0     0  0
  9 28  1  0     0  0
 10 25  1  0     0  0
 11 12  1  0     0  0
 11 16  2  0     0  0
 11 23  1  0     0  0
 12 17  2  0     0  0
 12 24  1  0     0  0
 13 15  2  0     0  0
 13 18  1  0     0  0
 13 24  1  0     0  0
 14 15  1  0     0  0
 14 19  2  0     0  0
 14 27  1  0     0  0
 16 21  1  0     0  0
 17 22  1  0     0  0
 18 20  2  0     0  0
 19 20  1  0     0  0
 21 22  2  0     0  0
 28 29  1  0     0  0
 29 30  1  0     0  0
 30 31  1  0     0  0
M  END
> <standard_type>
pIC50

> <# Confs.>
25

> <canonical_smiles>
ClC(N=C1CCCC)=C(COC)N1CC2=CC=CC(C(C3=CC=CC=C3C(O)=O)=O)=C2

> <standard_relation>
=

> <Publication_ID>
nan

> <predicted_activity_value>
6.958607314841775

> <actual_activity_value>
6.823908740944319

> <Compound>
10

> <standard_units>
nM

> hash
12268670834815209692

$$$$
9
XXILIB    08252103503D 0   0.00000     0.00000

 31 33  0     1  0            999 V2000
    5.0107   -1.4785    0.0029 Cl  0  0  0  0  0  1           0  0  0
   -3.3979    4.3215    2.1143 O   0  0  0  0  0  2           0  0  0
   -2.4949    2.5943    4.8359 O   0  0  0  0  0  2           0  0  0
    1.6630   -2.9164    1.3341 O   0  0  0  0  0  2           0  0  0
   -3.3499    6.0167    3.6375 O   0  0  0  0  0  2           0  0  0
    1.4518   -0.0000   -0.0000 N   0  0  0  0  0  3           0  0  0
    3.5355    0.7714   -0.0002 N   0  0  0  0  0  3           0  0  0
    3.5508   -0.5984   -0.0049 C   0  0  0  0  0  4           0  0  0
    2.2641    1.1177    0.0000 C   0  0  0  0  0  4           0  0  0
    2.2681   -1.1139   -0.0135 C   0  0  0  0  0  4           0  0  0
   -1.3560    4.9031    3.2003 C   0  0  0  0  0  4           0  0  0
   -0.7762    3.7311    3.7168 C   0  0  0  0  0  4           0  0  0
   -1.3248    1.2140    3.3597 C   0  0  0  0  0  4           0  0  0
   -0.5420    0.0000    1.3966 C   0  0  0  0  0  4           0  0  0
   -0.7994    1.2096    2.0599 C   0  0  0  0  0  4           0  0  0
   -0.5822    6.0433    2.9496 C   0  0  0  0  0  4           0  0  0
    0.6058    3.7284    3.9608 C   0  0  0  0  0  4           0  0  0
   -1.5957    0.0007    4.0005 C   0  0  0  0  0  4           0  0  0
   -0.8250   -1.2065    2.0490 C   0  0  0  0  0  4           0  0  0
   -1.3457   -1.2045    3.3434 C   0  0  0  0  0  4           0  0  0
    0.7868    6.0197    3.1997 C   0  0  0  0  0  4           0  0  0
    1.3794    4.8644    3.7016 C   0  0  0  0  0  4           0  0  0
   -2.7942    5.0247    2.9067 C   0  0  0  0  0  4           0  0  0
   -1.5836    2.5146    4.0159 C   0  0  0  0  0  4           0  0  0
    1.7895   -2.5152   -0.0232 C   0  0  0  0  0  4           0  0  0
    1.2065   -4.2563    1.4670 C   0  0  0  0  0  4           0  0  0
    0.0000    0.0000    0.0000 C   0  0  0  0  0  4           0  0  0
    1.7702    2.5201    0.0095 C   0  0  0  0  0  4           0  0  0
    2.5114    3.4050   -0.9886 C   0  0  0  0  0  4           0  0  0
    2.3981    2.9479   -2.4436 C   0  0  0  0  0  4           0  0  0
    3.1580    3.8724   -3.3804 C   0  0  0  0  0  4           0  0  0
  1  8  1  0     0  0
  2 23  2  0     0  0
  3 24  2  0     0  0
  4 25  1  0     0  0
  4 26  1  0     0  0
  5 23  1  0     0  0
  6  9  1  0     0  0
  6 10  1  0     0  0
  6 27  1  0     0  0
  7  8  1  0     0  0
  7  9  2  0     0  0
  8 10  2  0     0  0
  9 28  1  0     0  0
 10 25  1  0     0  0
 11 12  1  0     0  0
 11 16  2  0     0  0
 11 23  1  0     0  0
 12 17  2  0     0  0
 12 24  1  0     0  0
 13 15  2  0     0  0
 13 18  1  0     0  0
 13 24  1  0     0  0
 14 15  1  0     0  0
 14 19  2  0     0  0
 14 27  1  0     0  0
 16 21  1  0     0  0
 17 22  1  0     0  0
 18 20  2  0     0  0
 19 20  1  0     0  0
 21 22  2  0     0  0
 28 29  1  0     0  0
 29 30  1  0     0  0
 30 31  1  0     0  0
M  END
> <standard_type>
pIC50

> <# Confs.>
25

> <canonical_smiles>
ClC(N=C1CCCC)=C(COC)N1CC2=CC=CC(C(C3=CC=CC=C3C(O)=O)=O)=C2

> <standard_relation>
=

> <Publication_ID>
nan

> <predicted_activity_value>
6.958607314841775

> <actual_activity_value>
6.823908740944319

> <Compound>
10

> <standard_units>
nM

> hash
12268670834815209692

$$$$
9
XXILIB    08252103503D 0   0.00000     0.00000

 31 33  0     1  0            999 V2000
    5.0107   -1.4785    0.0029 Cl  0  0  0  0  0  1           0  0  0
   -4.3798    2.0743    3.4918 O   0  0  0  0  0  2           0  0  0
   -1.3306    3.5489    3.4028 O   0  0  0  0  0  2           0  0  0
    1.6630   -2.9164    1.3341 O   0  0  0  0  0  2           0  0  0
   -5.6391    3.3222    4.9248 O   0  0  0  0  0  2           0  0  0
    1.4518   -0.0000   -0.0000 N   0  0  0  0  0  3           0  0  0
    3.5355    0.7714   -0.0002 N   0  0  0  0  0  3           0  0  0
    3.5508   -0.5984   -0.0049 C   0  0  0  0  0  4           0  0  0
    2.2641    1.1177    0.0000 C   0  0  0  0  0  4           0  0  0
    2.2681   -1.1139   -0.0135 C   0  0  0  0  0  4           0  0  0
   -3.5248    2.6676    5.6375 C   0  0  0  0  0  4           0  0  0
   -2.1412    2.6132    5.3945 C   0  0  0  0  0  4           0  0  0
   -1.3248    1.2140    3.3597 C   0  0  0  0  0  4           0  0  0
   -0.5420    0.0000    1.3966 C   0  0  0  0  0  4           0  0  0
   -0.7994    1.2096    2.0599 C   0  0  0  0  0  4           0  0  0
   -4.0279    2.7353    6.9428 C   0  0  0  0  0  4           0  0  0
   -1.2737    2.6442    6.4971 C   0  0  0  0  0  4           0  0  0
   -1.5957    0.0007    4.0005 C   0  0  0  0  0  4           0  0  0
   -0.8250   -1.2065    2.0490 C   0  0  0  0  0  4           0  0  0
   -1.3457   -1.2045    3.3434 C   0  0  0  0  0  4           0  0  0
   -3.1501    2.7638    8.0227 C   0  0  0  0  0  4           0  0  0
   -1.7766    2.7209    7.7999 C   0  0  0  0  0  4           0  0  0
   -4.5302    2.6400    4.5615 C   0  0  0  0  0  4           0  0  0
   -1.5836    2.5146    4.0159 C   0  0  0  0  0  4           0  0  0
    1.7895   -2.5152   -0.0232 C   0  0  0  0  0  4           0  0  0
    1.2065   -4.2563    1.4670 C   0  0  0  0  0  4           0  0  0
    0.0000    0.0000    0.0000 C   0  0  0  0  0  4           0  0  0
    1.7702    2.5201    0.0095 C   0  0  0  0  0  4           0  0  0
    2.5114    3.4050   -0.9886 C   0  0  0  0  0  4           0  0  0
    2.3981    2.9479   -2.4436 C   0  0  0  0  0  4           0  0  0
    3.1580    3.8724   -3.3804 C   0  0  0  0  0  4           0  0  0
  1  8  1  0     0  0
  2 23  2  0     0  0
  3 24  2  0     0  0
  4 25  1  0     0  0
  4 26  1  0     0  0
  5 23  1  0     0  0
  6  9  1  0     0  0
  6 10  1  0     0  0
  6 27  1  0     0  0
  7  8  1  0     0  0
  7  9  2  0     0  0
  8 10  2  0     0  0
  9 28  1  0     0  0
 10 25  1  0     0  0
 11 12  1  0     0  0
 11 16  2  0     0  0
 11 23  1  0     0  0
 12 17  2  0     0  0
 12 24  1  0     0  0
 13 15  2  0     0  0
 13 18  1  0     0  0
 13 24  1  0     0  0
 14 15  1  0     0  0
 14 19  2  0     0  0
 14 27  1  0     0  0
 16 21  1  0     0  0
 17 22  1  0     0  0
 18 20  2  0     0  0
 19 20  1  0     0  0
 21 22  2  0     0  0
 28 29  1  0     0  0
 29 30  1  0     0  0
 30 31  1  0     0  0
M  END
> <standard_type>
pIC50

> <# Confs.>
25

> <canonical_smiles>
ClC(N=C1CCCC)=C(COC)N1CC2=CC=CC(C(C3=CC=CC=C3C(O)=O)=O)=C2

> <standard_relation>
=

> <Publication_ID>
nan

> <predicted_activity_value>
6.958607314841775

> <actual_activity_value>
6.823908740944319

> <Compound>
10

> <standard_units>
nM

> hash
12268670834815209692

$$$$
9
XXILIB    08252103503D 0   0.00000     0.00000

 31 33  0     1  0            999 V2000
    5.0107    1.4785   -0.0029 Cl  0  0  0  0  0  1           0  0  0
    0.7868    1.6776    5.9788 O   0  0  0  0  0  2           0  0  0
   -1.3306    3.5489    3.4028 O   0  0  0  0  0  2           0  0  0
    0.7510    2.6022   -0.9429 O   0  0  0  0  0  2           0  0  0
    0.7016    3.7178    6.9921 O   0  0  0  0  0  2           0  0  0
    1.4518    0.0000    0.0000 N   0  0  0  0  0  3           0  0  0
    3.5355   -0.7714    0.0002 N   0  0  0  0  0  3           0  0  0
    3.5508    0.5984    0.0049 C   0  0  0  0  0  4           0  0  0
    2.2641   -1.1177    0.0000 C   0  0  0  0  0  4           0  0  0
    2.2681    1.1139    0.0135 C   0  0  0  0  0  4           0  0  0
   -1.3159    2.6574    6.5318 C   0  0  0  0  0  4           0  0  0
   -2.1412    2.6132    5.3945 C   0  0  0  0  0  4           0  0  0
   -1.3248    1.2140    3.3597 C   0  0  0  0  0  4           0  0  0
   -0.5420    0.0000    1.3966 C   0  0  0  0  0  4           0  0  0
   -0.7994    1.2096    2.0599 C   0  0  0  0  0  4           0  0  0
   -1.8606    2.7748    7.8167 C   0  0  0  0  0  4           0  0  0
   -3.5306    2.6744    5.5821 C   0  0  0  0  0  4           0  0  0
   -1.5957    0.0007    4.0005 C   0  0  0  0  0  4           0  0  0
   -0.8250   -1.2065    2.0490 C   0  0  0  0  0  4           0  0  0
   -1.3457   -1.2045    3.3434 C   0  0  0  0  0  4           0  0  0
   -3.2415    2.8352    7.9806 C   0  0  0  0  0  4           0  0  0
   -4.0741    2.7825    6.8662 C   0  0  0  0  0  4           0  0  0
    0.1541    2.6029    6.4590 C   0  0  0  0  0  4           0  0  0
   -1.5836    2.5146    4.0159 C   0  0  0  0  0  4           0  0  0
    1.7895    2.5152    0.0232 C   0  0  0  0  0  4           0  0  0
    0.1992    3.9092   -1.0348 C   0  0  0  0  0  4           0  0  0
    0.0000    0.0000    0.0000 C   0  0  0  0  0  4           0  0  0
    1.7702   -2.5201   -0.0095 C   0  0  0  0  0  4           0  0  0
    2.5114   -3.4050    0.9886 C   0  0  0  0  0  4           0  0  0
    2.3981   -2.9479    2.4436 C   0  0  0  0  0  4           0  0  0
    3.1580   -3.8724    3.3804 C   0  0  0  0  0  4           0  0  0
  1  8  1  0     0  0
  2 23  2  0     0  0
  3 24  2  0     0  0
  4 25  1  0     0  0
  4 26  1  0     0  0
  5 23  1  0     0  0
  6  9  1  0     0  0
  6 10  1  0     0  0
  6 27  1  0     0  0
  7  8  1  0     0  0
  7  9  2  0     0  0
  8 10  2  0     0  0
  9 28  1  0     0  0
 10 25  1  0     0  0
 11 12  1  0     0  0
 11 16  2  0     0  0
 11 23  1  0     0  0
 12 17  2  0     0  0
 12 24  1  0     0  0
 13 15  2  0     0  0
 13 18  1  0     0  0
 13 24  1  0     0  0
 14 15  1  0     0  0
 14 19  2  0     0  0
 14 27  1  0     0  0
 16 21  1  0     0  0
 17 22  1  0     0  0
 18 20  2  0     0  0
 19 20  1  0     0  0
 21 22  2  0     0  0
 28 29  1  0     0  0
 29 30  1  0     0  0
 30 31  1  0     0  0
M  END
> <standard_type>
pIC50

> <# Confs.>
25

> <canonical_smiles>
ClC(N=C1CCCC)=C(COC)N1CC2=CC=CC(C(C3=CC=CC=C3C(O)=O)=O)=C2

> <standard_relation>
=

> <Publication_ID>
nan

> <predicted_activity_value>
6.958607314841775

> <actual_activity_value>
6.823908740944319

> <Compound>
10

> <standard_units>
nM

> hash
12268670834815209692

$$$$
9
XXILIB    08252103503D 0   0.00000     0.00000

 31 33  0     1  0            999 V2000
    5.0107   -1.4785    0.0029 Cl  0  0  0  0  0  1           0  0  0
   -0.1408    2.5755    6.8597 O   0  0  0  0  0  2           0  0  0
   -0.8796    3.4777    3.7218 O   0  0  0  0  0  2           0  0  0
    0.7417   -2.5857   -0.9804 O   0  0  0  0  0  2           0  0  0
   -0.9434    4.6730    7.2499 O   0  0  0  0  0  2           0  0  0
    1.4518    0.0000    0.0000 N   0  0  0  0  0  3           0  0  0
    3.5355    0.7714   -0.0002 N   0  0  0  0  0  3           0  0  0
    3.5508   -0.5984   -0.0049 C   0  0  0  0  0  4           0  0  0
    2.2641    1.1177    0.0000 C   0  0  0  0  0  4           0  0  0
    2.2681   -1.1139   -0.0135 C   0  0  0  0  0  4           0  0  0
   -2.4051    3.1117    6.3376 C   0  0  0  0  0  4           0  0  0
   -2.6692    2.6968    5.0206 C   0  0  0  0  0  4           0  0  0
   -1.3248    1.2140    3.3597 C   0  0  0  0  0  4           0  0  0
   -0.5420    0.0000    1.3966 C   0  0  0  0  0  4           0  0  0
   -0.7994    1.2096    2.0599 C   0  0  0  0  0  4           0  0  0
   -3.4432    3.3001    7.2586 C   0  0  0  0  0  4           0  0  0
   -4.0036    2.4606    4.6560 C   0  0  0  0  0  4           0  0  0
   -1.5957    0.0007    4.0005 C   0  0  0  0  0  4           0  0  0
   -0.8250   -1.2065    2.0490 C   0  0  0  0  0  4           0  0  0
   -1.3457   -1.2045    3.3434 C   0  0  0  0  0  4           0  0  0
   -4.7600    3.0614    6.8762 C   0  0  0  0  0  4           0  0  0
   -5.0390    2.6403    5.5789 C   0  0  0  0  0  4           0  0  0
   -1.0467    3.3912    6.8336 C   0  0  0  0  0  4           0  0  0
   -1.5836    2.5146    4.0159 C   0  0  0  0  0  4           0  0  0
    1.7895   -2.5152   -0.0232 C   0  0  0  0  0  4           0  0  0
    0.1888   -3.8910   -1.0894 C   0  0  0  0  0  4           0  0  0
    0.0000    0.0000    0.0000 C   0  0  0  0  0  4           0  0  0
    1.7702    2.5201    0.0095 C   0  0  0  0  0  4           0  0  0
    2.5114    3.4050   -0.9886 C   0  0  0  0  0  4           0  0  0
    2.3981    2.9479   -2.4436 C   0  0  0  0  0  4           0  0  0
    3.1580    3.8724   -3.3804 C   0  0  0  0  0  4           0  0  0
  1  8  1  0     0  0
  2 23  2  0     0  0
  3 24  2  0     0  0
  4 25  1  0     0  0
  4 26  1  0     0  0
  5 23  1  0     0  0
  6  9  1  0     0  0
  6 10  1  0     0  0
  6 27  1  0     0  0
  7  8  1  0     0  0
  7  9  2  0     0  0
  8 10  2  0     0  0
  9 28  1  0     0  0
 10 25  1  0     0  0
 11 12  1  0     0  0
 11 16  2  0     0  0
 11 23  1  0     0  0
 12 17  2  0     0  0
 12 24  1  0     0  0
 13 15  2  0     0  0
 13 18  1  0     0  0
 13 24  1  0     0  0
 14 15  1  0     0  0
 14 19  2  0     0  0
 14 27  1  0     0  0
 16 21  1  0     0  0
 17 22  1  0     0  0
 18 20  2  0     0  0
 19 20  1  0     0  0
 21 22  2  0     0  0
 28 29  1  0     0  0
 29 30  1  0     0  0
 30 31  1  0     0  0
M  END
> <standard_type>
pIC50

> <# Confs.>
25

> <canonical_smiles>
ClC(N=C1CCCC)=C(COC)N1CC2=CC=CC(C(C3=CC=CC=C3C(O)=O)=O)=C2

> <standard_relation>
=

> <Publication_ID>
nan

> <predicted_activity_value>
6.958607314841775

> <actual_activity_value>
6.823908740944319

> <Compound>
10

> <standard_units>
nM

> hash
12268670834815209692

$$$$
10
XXILIB    08252103503D 0   0.00000     0.00000

 30 32  0     1  0            999 V2000
    5.0277   -1.4596    0.0265 Cl  0  0  0  0  0  1           0  0  0
    0.2391    4.7137    3.3960 O   0  0  0  0  0  2           0  0  0
   -0.6636    2.1343    5.6323 O   0  0  0  0  0  2           0  0  0
    1.1149    5.5379    5.3194 O   0  0  0  0  0  2           0  0  0
    1.5405   -2.8932   -1.3688 O   0  0  0  0  0  2           0  0  0
    1.4530    0.0000    0.0000 N   0  0  0  0  0  3           0  0  0
    3.5352    0.7623    0.0079 N   0  0  0  0  0  3           0  0  0
    3.5486   -0.6094    0.0071 C   0  0  0  0  0  4           0  0  0
    2.2669    1.1146   -0.0000 C   0  0  0  0  0  4           0  0  0
    2.2623   -1.1246   -0.0085 C   0  0  0  0  0  4           0  0  0
    1.9086    3.4492    4.5028 C   0  0  0  0  0  4           0  0  0
    1.4623    2.1229    4.6194 C   0  0  0  0  0  4           0  0  0
   -0.4984    0.8466    3.6806 C   0  0  0  0  0  4           0  0  0
   -0.5412    0.0000    1.3970 C   0  0  0  0  0  4           0  0  0
   -0.0007    0.8557    2.3708 C   0  0  0  0  0  4           0  0  0
    3.2807    3.7291    4.4902 C   0  0  0  0  0  4           0  0  0
    2.4022    1.0844    4.6749 C   0  0  0  0  0  4           0  0  0
   -1.5377   -0.0273    4.0198 C   0  0  0  0  0  4           0  0  0
   -1.5765   -0.8731    1.7550 C   0  0  0  0  0  4           0  0  0
   -2.0722   -0.8844    3.0581 C   0  0  0  0  0  4           0  0  0
    4.2065    2.6888    4.5630 C   0  0  0  0  0  4           0  0  0
    3.7683    1.3688    4.6469 C   0  0  0  0  0  4           0  0  0
    1.0064    4.6075    4.3417 C   0  0  0  0  0  4           0  0  0
    0.0401    1.7326    4.7165 C   0  0  0  0  0  4           0  0  0
    1.7079   -2.4956   -0.0149 C   0  0  0  0  0  4           0  0  0
    0.0000    0.0000    0.0000 C   0  0  0  0  0  4           0  0  0
    1.7822    2.5218   -0.0006 C   0  0  0  0  0  4           0  0  0
    2.5369    3.3949   -0.9983 C   0  0  0  0  0  4           0  0  0
    2.0472    4.8408   -1.0068 C   0  0  0  0  0  4           0  0  0
    2.7987    5.7133   -2.0012 C   0  0  0  0  0  4           0  0  0
  1  8  1  0     0  0
  2 23  2  0     0  0
  3 24  2  0     0  0
  4 23  1  0     0  0
  5 25  1  0     0  0
  6  9  1  0     0  0
  6 10  1  0     0  0
  6 26  1  0     0  0
  7  8  1  0     0  0
  7  9  2  0     0  0
  8 10  2  0     0  0
  9 27  1  0     0  0
 10 25  1  0     0  0
 11 12  1  0     0  0
 11 16  2  0     0  0
 11 23  1  0     0  0
 12 17  2  0     0  0
 12 24  1  0     0  0
 13 15  2  0     0  0
 13 18  1  0     0  0
 13 24  1  0     0  0
 14 15  1  0     0  0
 14 19  2  0     0  0
 14 26  1  0     0  0
 16 21  1  0     0  0
 17 22  1  0     0  0
 18 20  2  0     0  0
 19 20  1  0     0  0
 21 22  2  0     0  0
 27 28  1  0     0  0
 28 29  1  0     0  0
 29 30  1  0     0  0
M  END
> <standard_type>
pIC50

> <# Confs.>
25

> <canonical_smiles>
ClC(N=C1CCCC)=C(CO)N1CC2=CC=CC(C(C3=CC=CC=C3C(O)=O)=O)=C2

> <standard_relation>
=

> <Publication_ID>
nan

> <predicted_activity_value>
5.721246399047171

> <actual_activity_value>
6.468521082957745

> <Compound>
11

> <standard_units>
nM

> hash
16394989093989855569

$$$$
10
XXILIB    08252103503D 0   0.00000     0.00000

 30 32  0     1  0            999 V2000
    5.0277   -1.4596    0.0265 Cl  0  0  0  0  0  1           0  0  0
    0.2391    4.7137    3.3960 O   0  0  0  0  0  2           0  0  0
   -0.6636    2.1343    5.6323 O   0  0  0  0  0  2           0  0  0
    1.1149    5.5379    5.3194 O   0  0  0  0  0  2           0  0  0
    1.5405   -2.8932   -1.3688 O   0  0  0  0  0  2           0  0  0
    1.4530    0.0000    0.0000 N   0  0  0  0  0  3           0  0  0
    3.5352    0.7623    0.0079 N   0  0  0  0  0  3           0  0  0
    3.5486   -0.6094    0.0071 C   0  0  0  0  0  4           0  0  0
    2.2669    1.1146   -0.0000 C   0  0  0  0  0  4           0  0  0
    2.2623   -1.1246   -0.0085 C   0  0  0  0  0  4           0  0  0
    1.9086    3.4492    4.5028 C   0  0  0  0  0  4           0  0  0
    1.4623    2.1229    4.6194 C   0  0  0  0  0  4           0  0  0
   -0.4984    0.8466    3.6806 C   0  0  0  0  0  4           0  0  0
   -0.5412    0.0000    1.3970 C   0  0  0  0  0  4           0  0  0
   -0.0007    0.8557    2.3708 C   0  0  0  0  0  4           0  0  0
    3.2807    3.7291    4.4902 C   0  0  0  0  0  4           0  0  0
    2.4022    1.0844    4.6749 C   0  0  0  0  0  4           0  0  0
   -1.5377   -0.0273    4.0198 C   0  0  0  0  0  4           0  0  0
   -1.5765   -0.8731    1.7550 C   0  0  0  0  0  4           0  0  0
   -2.0722   -0.8844    3.0581 C   0  0  0  0  0  4           0  0  0
    4.2065    2.6888    4.5630 C   0  0  0  0  0  4           0  0  0
    3.7683    1.3688    4.6469 C   0  0  0  0  0  4           0  0  0
    1.0064    4.6075    4.3417 C   0  0  0  0  0  4           0  0  0
    0.0401    1.7326    4.7165 C   0  0  0  0  0  4           0  0  0
    1.7079   -2.4956   -0.0149 C   0  0  0  0  0  4           0  0  0
    0.0000    0.0000    0.0000 C   0  0  0  0  0  4           0  0  0
    1.7822    2.5218   -0.0006 C   0  0  0  0  0  4           0  0  0
    2.5369    3.3949   -0.9983 C   0  0  0  0  0  4           0  0  0
    2.4056    2.8983   -2.4358 C   0  0  0  0  0  4           0  0  0
    3.1577    3.7679   -3.4323 C   0  0  0  0  0  4           0  0  0
  1  8  1  0     0  0
  2 23  2  0     0  0
  3 24  2  0     0  0
  4 23  1  0     0  0
  5 25  1  0     0  0
  6  9  1  0     0  0
  6 10  1  0     0  0
  6 26  1  0     0  0
  7  8  1  0     0  0
  7  9  2  0     0  0
  8 10  2  0     0  0
  9 27  1  0     0  0
 10 25  1  0     0  0
 11 12  1  0     0  0
 11 16  2  0     0  0
 11 23  1  0     0  0
 12 17  2  0     0  0
 12 24  1  0     0  0
 13 15  2  0     0  0
 13 18  1  0     0  0
 13 24  1  0     0  0
 14 15  1  0     0  0
 14 19  2  0     0  0
 14 26  1  0     0  0
 16 21  1  0     0  0
 17 22  1  0     0  0
 18 20  2  0     0  0
 19 20  1  0     0  0
 21 22  2  0     0  0
 27 28  1  0     0  0
 28 29  1  0     0  0
 29 30  1  0     0  0
M  END
> <standard_type>
pIC50

> <# Confs.>
25

> <canonical_smiles>
ClC(N=C1CCCC)=C(CO)N1CC2=CC=CC(C(C3=CC=CC=C3C(O)=O)=O)=C2

> <standard_relation>
=

> <Publication_ID>
nan

> <predicted_activity_value>
5.721246399047171

> <actual_activity_value>
6.468521082957745

> <Compound>
11

> <standard_units>
nM

> hash
16394989093989855569

$$$$
10
XXILIB    08252103503D 0   0.00000     0.00000

 30 32  0     1  0            999 V2000
    5.0277    1.4596   -0.0265 Cl  0  0  0  0  0  1           0  0  0
   -3.2979   -4.8861    2.0870 O   0  0  0  0  0  2           0  0  0
   -2.4827   -2.5219    4.9174 O   0  0  0  0  0  2           0  0  0
   -3.2678   -5.6918    4.2074 O   0  0  0  0  0  2           0  0  0
    1.5405    2.8932    1.3688 O   0  0  0  0  0  2           0  0  0
    1.4530   -0.0000    0.0000 N   0  0  0  0  0  3           0  0  0
    3.5352   -0.7623   -0.0079 N   0  0  0  0  0  3           0  0  0
    3.5486    0.6094   -0.0071 C   0  0  0  0  0  4           0  0  0
    2.2669   -1.1146    0.0000 C   0  0  0  0  0  4           0  0  0
    2.2623    1.1246    0.0085 C   0  0  0  0  0  4           0  0  0
   -1.2491   -4.8462    3.2753 C   0  0  0  0  0  4           0  0  0
   -0.7495   -3.6319    3.7732 C   0  0  0  0  0  4           0  0  0
   -1.3167   -1.2101    3.3636 C   0  0  0  0  0  4           0  0  0
   -0.5412    0.0000    1.3970 C   0  0  0  0  0  4           0  0  0
   -0.7986   -1.2101    2.0617 C   0  0  0  0  0  4           0  0  0
   -0.3684   -5.8820    2.9392 C   0  0  0  0  0  4           0  0  0
    0.6304   -3.4874    3.9732 C   0  0  0  0  0  4           0  0  0
   -1.5845    0.0065    4.0017 C   0  0  0  0  0  4           0  0  0
   -0.8212    1.2086    2.0476 C   0  0  0  0  0  4           0  0  0
   -1.3378    1.2106    3.3425 C   0  0  0  0  0  4           0  0  0
    1.0039   -5.7204    3.1269 C   0  0  0  0  0  4           0  0  0
    1.5016   -4.5289    3.6504 C   0  0  0  0  0  4           0  0  0
   -2.6881   -5.1380    3.1163 C   0  0  0  0  0  4           0  0  0
   -1.5890   -2.4562    4.0854 C   0  0  0  0  0  4           0  0  0
    1.7079    2.4956    0.0149 C   0  0  0  0  0  4           0  0  0
    0.0000    0.0000    0.0000 C   0  0  0  0  0  4           0  0  0
    1.7822   -2.5218    0.0006 C   0  0  0  0  0  4           0  0  0
    2.5361   -3.3955   -0.9971 C   0  0  0  0  0  4           0  0  0
    2.0464   -4.8414   -1.0045 C   0  0  0  0  0  4           0  0  0
    2.7972   -5.7145   -1.9990 C   0  0  0  0  0  4           0  0  0
  1  8  1  0     0  0
  2 23  2  0     0  0
  3 24  2  0     0  0
  4 23  1  0     0  0
  5 25  1  0     0  0
  6  9  1  0     0  0
  6 10  1  0     0  0
  6 26  1  0     0  0
  7  8  1  0     0  0
  7  9  2  0     0  0
  8 10  2  0     0  0
  9 27  1  0     0  0
 10 25  1  0     0  0
 11 12  1  0     0  0
 11 16  2  0     0  0
 11 23  1  0     0  0
 12 17  2  0     0  0
 12 24  1  0     0  0
 13 15  2  0     0  0
 13 18  1  0     0  0
 13 24  1  0     0  0
 14 15  1  0     0  0
 14 19  2  0     0  0
 14 26  1  0     0  0
 16 21  1  0     0  0
 17 22  1  0     0  0
 18 20  2  0     0  0
 19 20  1  0     0  0
 21 22  2  0     0  0
 27 28  1  0     0  0
 28 29  1  0     0  0
 29 30  1  0     0  0
M  END
> <standard_type>
pIC50

> <# Confs.>
25

> <canonical_smiles>
ClC(N=C1CCCC)=C(CO)N1CC2=CC=CC(C(C3=CC=CC=C3C(O)=O)=O)=C2

> <standard_relation>
=

> <Publication_ID>
nan

> <predicted_activity_value>
5.721246399047171

> <actual_activity_value>
6.468521082957745

> <Compound>
11

> <standard_units>
nM

> hash
16394989093989855569

$$$$
10
XXILIB    08252103503D 0   0.00000     0.00000

 30 32  0     1  0            999 V2000
    5.0277    1.4596   -0.0265 Cl  0  0  0  0  0  1           0  0  0
   -4.0156   -3.2481    1.5750 O   0  0  0  0  0  2           0  0  0
   -2.0412   -2.4422    5.2215 O   0  0  0  0  0  2           0  0  0
   -4.4757   -4.5653    3.3636 O   0  0  0  0  0  2           0  0  0
    1.5405    2.8932    1.3688 O   0  0  0  0  0  2           0  0  0
    1.4530   -0.0000    0.0000 N   0  0  0  0  0  3           0  0  0
    3.5352   -0.7623   -0.0079 N   0  0  0  0  0  3           0  0  0
    3.5486    0.6094   -0.0071 C   0  0  0  0  0  4           0  0  0
    2.2669   -1.1146    0.0000 C   0  0  0  0  0  4           0  0  0
    2.2623    1.1246    0.0085 C   0  0  0  0  0  4           0  0  0
   -2.2286   -4.4203    2.5965 C   0  0  0  0  0  4           0  0  0
   -1.3014   -3.7307    3.3945 C   0  0  0  0  0  4           0  0  0
   -1.3167   -1.2101    3.3636 C   0  0  0  0  0  4           0  0  0
   -0.5412   -0.0000    1.3970 C   0  0  0  0  0  4           0  0  0
   -0.7986   -1.2101    2.0617 C   0  0  0  0  0  4           0  0  0
   -1.8433   -5.5850    1.9209 C   0  0  0  0  0  4           0  0  0
   -0.0063   -4.2458    3.5435 C   0  0  0  0  0  4           0  0  0
   -1.5845    0.0065    4.0017 C   0  0  0  0  0  4           0  0  0
   -0.8212    1.2086    2.0476 C   0  0  0  0  0  4           0  0  0
   -1.3378    1.2106    3.3425 C   0  0  0  0  0  4           0  0  0
   -0.5470   -6.0787    2.0635 C   0  0  0  0  0  4           0  0  0
    0.3671   -5.4153    2.8794 C   0  0  0  0  0  4           0  0  0
   -3.6420   -4.0187    2.4474 C   0  0  0  0  0  4           0  0  0
   -1.5890   -2.4562    4.0854 C   0  0  0  0  0  4           0  0  0
    1.7079    2.4956    0.0149 C   0  0  0  0  0  4           0  0  0
    0.0000    0.0000    0.0000 C   0  0  0  0  0  4           0  0  0
    1.7822   -2.5218    0.0006 C   0  0  0  0  0  4           0  0  0
    2.5361   -3.3955   -0.9971 C   0  0  0  0  0  4           0  0  0
    2.0464   -4.8414   -1.0045 C   0  0  0  0  0  4           0  0  0
    2.7972   -5.7145   -1.9990 C   0  0  0  0  0  4           0  0  0
  1  8  1  0     0  0
  2 23  2  0     0  0
  3 24  2  0     0  0
  4 23  1  0     0  0
  5 25  1  0     0  0
  6  9  1  0     0  0
  6 10  1  0     0  0
  6 26  1  0     0  0
  7  8  1  0     0  0
  7  9  2  0     0  0
  8 10  2  0     0  0
  9 27  1  0     0  0
 10 25  1  0     0  0
 11 12  1  0     0  0
 11 16  2  0     0  0
 11 23  1  0     0  0
 12 17  2  0     0  0
 12 24  1  0     0  0
 13 15  2  0     0  0
 13 18  1  0     0  0
 13 24  1  0     0  0
 14 15  1  0     0  0
 14 19  2  0     0  0
 14 26  1  0     0  0
 16 21  1  0     0  0
 17 22  1  0     0  0
 18 20  2  0     0  0
 19 20  1  0     0  0
 21 22  2  0     0  0
 27 28  1  0     0  0
 28 29  1  0     0  0
 29 30  1  0     0  0
M  END
> <standard_type>
pIC50

> <# Confs.>
25

> <canonical_smiles>
ClC(N=C1CCCC)=C(CO)N1CC2=CC=CC(C(C3=CC=CC=C3C(O)=O)=O)=C2

> <standard_relation>
=

> <Publication_ID>
nan

> <predicted_activity_value>
5.721246399047171

> <actual_activity_value>
6.468521082957745

> <Compound>
11

> <standard_units>
nM

> hash
16394989093989855569

$$$$
10
XXILIB    08252103503D 0   0.00000     0.00000

 30 32  0     1  0            999 V2000
    5.0277    1.4596   -0.0265 Cl  0  0  0  0  0  1           0  0  0
   -3.8187    3.1587    1.2963 O   0  0  0  0  0  2           0  0  0
   -2.0089    2.4422    5.2340 O   0  0  0  0  0  2           0  0  0
   -4.5779    4.1868    3.1705 O   0  0  0  0  0  2           0  0  0
    1.5405    2.8932    1.3688 O   0  0  0  0  0  2           0  0  0
    1.4530   -0.0000    0.0000 N   0  0  0  0  0  3           0  0  0
    3.5352   -0.7623   -0.0079 N   0  0  0  0  0  3           0  0  0
    3.5486    0.6094   -0.0071 C   0  0  0  0  0  4           0  0  0
    2.2669   -1.1146    0.0000 C   0  0  0  0  0  4           0  0  0
    2.2623    1.1246    0.0085 C   0  0  0  0  0  4           0  0  0
   -2.2782    4.3989    2.6000 C   0  0  0  0  0  4           0  0  0
   -1.3249    3.7307    3.3853 C   0  0  0  0  0  4           0  0  0
   -1.2928    1.2101    3.3729 C   0  0  0  0  0  4           0  0  0
   -0.5412   -0.0000    1.3970 C   0  0  0  0  0  4           0  0  0
   -0.7986    1.2101    2.0617 C   0  0  0  0  0  4           0  0  0
   -1.9710    5.6402    2.0290 C   0  0  0  0  0  4           0  0  0
   -0.0529    4.2961    3.5505 C   0  0  0  0  0  4           0  0  0
   -1.5247   -0.0065    4.0249 C   0  0  0  0  0  4           0  0  0
   -0.7724   -1.2086    2.0665 C   0  0  0  0  0  4           0  0  0
   -1.2630   -1.2106    3.3715 C   0  0  0  0  0  4           0  0  0
   -0.7077    6.2008    2.2142 C   0  0  0  0  0  4           0  0  0
    0.2520    5.5264    2.9664 C   0  0  0  0  0  4           0  0  0
   -3.6120    3.8491    2.2838 C   0  0  0  0  0  4           0  0  0
   -1.5778    2.4562    4.0898 C   0  0  0  0  0  4           0  0  0
    1.7079    2.4956    0.0149 C   0  0  0  0  0  4           0  0  0
    0.0000    0.0000    0.0000 C   0  0  0  0  0  4           0  0  0
    1.7822   -2.5218    0.0006 C   0  0  0  0  0  4           0  0  0
    2.5361   -3.3955   -0.9971 C   0  0  0  0  0  4           0  0  0
    2.0464   -4.8414   -1.0045 C   0  0  0  0  0  4           0  0  0
    2.7972   -5.7145   -1.9990 C   0  0  0  0  0  4           0  0  0
  1  8  1  0     0  0
  2 23  2  0     0  0
  3 24  2  0     0  0
  4 23  1  0     0  0
  5 25  1  0     0  0
  6  9  1  0     0  0
  6 10  1  0     0  0
  6 26  1  0     0  0
  7  8  1  0     0  0
  7  9  2  0     0  0
  8 10  2  0     0  0
  9 27  1  0     0  0
 10 25  1  0     0  0
 11 12  1  0     0  0
 11 16  2  0     0  0
 11 23  1  0     0  0
 12 17  2  0     0  0
 12 24  1  0     0  0
 13 15  2  0     0  0
 13 18  1  0     0  0
 13 24  1  0     0  0
 14 15  1  0     0  0
 14 19  2  0     0  0
 14 26  1  0     0  0
 16 21  1  0     0  0
 17 22  1  0     0  0
 18 20  2  0     0  0
 19 20  1  0     0  0
 21 22  2  0     0  0
 27 28  1  0     0  0
 28 29  1  0     0  0
 29 30  1  0     0  0
M  END
> <standard_type>
pIC50

> <# Confs.>
25

> <canonical_smiles>
ClC(N=C1CCCC)=C(CO)N1CC2=CC=CC(C(C3=CC=CC=C3C(O)=O)=O)=C2

> <standard_relation>
=

> <Publication_ID>
nan

> <predicted_activity_value>
5.721246399047171

> <actual_activity_value>
6.468521082957745

> <Compound>
11

> <standard_units>
nM

> hash
16394989093989855569

$$$$
10
XXILIB    08252103503D 0   0.00000     0.00000

 30 32  0     1  0            999 V2000
    5.0277    1.4596   -0.0265 Cl  0  0  0  0  0  1           0  0  0
   -3.8187    3.1587    1.2963 O   0  0  0  0  0  2           0  0  0
   -2.0089    2.4422    5.2340 O   0  0  0  0  0  2           0  0  0
   -4.5779    4.1868    3.1705 O   0  0  0  0  0  2           0  0  0
    1.5405    2.8932    1.3688 O   0  0  0  0  0  2           0  0  0
    1.4530   -0.0000    0.0000 N   0  0  0  0  0  3           0  0  0
    3.5352   -0.7623   -0.0079 N   0  0  0  0  0  3           0  0  0
    3.5486    0.6094   -0.0071 C   0  0  0  0  0  4           0  0  0
    2.2669   -1.1146    0.0000 C   0  0  0  0  0  4           0  0  0
    2.2623    1.1246    0.0085 C   0  0  0  0  0  4           0  0  0
   -2.2782    4.3989    2.6000 C   0  0  0  0  0  4           0  0  0
   -1.3249    3.7307    3.3853 C   0  0  0  0  0  4           0  0  0
   -1.2928    1.2101    3.3729 C   0  0  0  0  0  4           0  0  0
   -0.5412   -0.0000    1.3970 C   0  0  0  0  0  4           0  0  0
   -0.7986    1.2101    2.0617 C   0  0  0  0  0  4           0  0  0
   -1.9710    5.6402    2.0290 C   0  0  0  0  0  4           0  0  0
   -0.0529    4.2961    3.5505 C   0  0  0  0  0  4           0  0  0
   -1.5247   -0.0065    4.0249 C   0  0  0  0  0  4           0  0  0
   -0.7724   -1.2086    2.0665 C   0  0  0  0  0  4           0  0  0
   -1.2630   -1.2106    3.3715 C   0  0  0  0  0  4           0  0  0
   -0.7077    6.2008    2.2142 C   0  0  0  0  0  4           0  0  0
    0.2520    5.5264    2.9664 C   0  0  0  0  0  4           0  0  0
   -3.6120    3.8491    2.2838 C   0  0  0  0  0  4           0  0  0
   -1.5778    2.4562    4.0898 C   0  0  0  0  0  4           0  0  0
    1.7079    2.4956    0.0149 C   0  0  0  0  0  4           0  0  0
    0.0000    0.0000    0.0000 C   0  0  0  0  0  4           0  0  0
    1.7822   -2.5218    0.0006 C   0  0  0  0  0  4           0  0  0
    2.5361   -3.3955   -0.9971 C   0  0  0  0  0  4           0  0  0
    2.4037   -2.8997   -2.4349 C   0  0  0  0  0  4           0  0  0
    3.1550   -3.7699   -3.4315 C   0  0  0  0  0  4           0  0  0
  1  8  1  0     0  0
  2 23  2  0     0  0
  3 24  2  0     0  0
  4 23  1  0     0  0
  5 25  1  0     0  0
  6  9  1  0     0  0
  6 10  1  0     0  0
  6 26  1  0     0  0
  7  8  1  0     0  0
  7  9  2  0     0  0
  8 10  2  0     0  0
  9 27  1  0     0  0
 10 25  1  0     0  0
 11 12  1  0     0  0
 11 16  2  0     0  0
 11 23  1  0     0  0
 12 17  2  0     0  0
 12 24  1  0     0  0
 13 15  2  0     0  0
 13 18  1  0     0  0
 13 24  1  0     0  0
 14 15  1  0     0  0
 14 19  2  0     0  0
 14 26  1  0     0  0
 16 21  1  0     0  0
 17 22  1  0     0  0
 18 20  2  0     0  0
 19 20  1  0     0  0
 21 22  2  0     0  0
 27 28  1  0     0  0
 28 29  1  0     0  0
 29 30  1  0     0  0
M  END
> <standard_type>
pIC50

> <# Confs.>
25

> <canonical_smiles>
ClC(N=C1CCCC)=C(CO)N1CC2=CC=CC(C(C3=CC=CC=C3C(O)=O)=O)=C2

> <standard_relation>
=

> <Publication_ID>
nan

> <predicted_activity_value>
5.721246399047171

> <actual_activity_value>
6.468521082957745

> <Compound>
11

> <standard_units>
nM

> hash
16394989093989855569

$$$$
10
XXILIB    08252103503D 0   0.00000     0.00000

 30 32  0     1  0            999 V2000
    5.0277    1.4596   -0.0265 Cl  0  0  0  0  0  1           0  0  0
   -3.2979   -4.8861    2.0870 O   0  0  0  0  0  2           0  0  0
   -2.4827   -2.5219    4.9174 O   0  0  0  0  0  2           0  0  0
   -3.2678   -5.6918    4.2074 O   0  0  0  0  0  2           0  0  0
    1.5405    2.8932    1.3688 O   0  0  0  0  0  2           0  0  0
    1.4530   -0.0000    0.0000 N   0  0  0  0  0  3           0  0  0
    3.5352   -0.7623   -0.0079 N   0  0  0  0  0  3           0  0  0
    3.5486    0.6094   -0.0071 C   0  0  0  0  0  4           0  0  0
    2.2669   -1.1146    0.0000 C   0  0  0  0  0  4           0  0  0
    2.2623    1.1246    0.0085 C   0  0  0  0  0  4           0  0  0
   -1.2491   -4.8462    3.2753 C   0  0  0  0  0  4           0  0  0
   -0.7495   -3.6319    3.7732 C   0  0  0  0  0  4           0  0  0
   -1.3167   -1.2101    3.3636 C   0  0  0  0  0  4           0  0  0
   -0.5412    0.0000    1.3970 C   0  0  0  0  0  4           0  0  0
   -0.7986   -1.2101    2.0617 C   0  0  0  0  0  4           0  0  0
   -0.3684   -5.8820    2.9392 C   0  0  0  0  0  4           0  0  0
    0.6304   -3.4874    3.9732 C   0  0  0  0  0  4           0  0  0
   -1.5845    0.0065    4.0017 C   0  0  0  0  0  4           0  0  0
   -0.8212    1.2086    2.0476 C   0  0  0  0  0  4           0  0  0
   -1.3378    1.2106    3.3425 C   0  0  0  0  0  4           0  0  0
    1.0039   -5.7204    3.1269 C   0  0  0  0  0  4           0  0  0
    1.5016   -4.5289    3.6504 C   0  0  0  0  0  4           0  0  0
   -2.6881   -5.1380    3.1163 C   0  0  0  0  0  4           0  0  0
   -1.5890   -2.4562    4.0854 C   0  0  0  0  0  4           0  0  0
    1.7079    2.4956    0.0149 C   0  0  0  0  0  4           0  0  0
    0.0000    0.0000    0.0000 C   0  0  0  0  0  4           0  0  0
    1.7822   -2.5218    0.0006 C   0  0  0  0  0  4           0  0  0
    2.5361   -3.3955   -0.9971 C   0  0  0  0  0  4           0  0  0
    2.4037   -2.8997   -2.4349 C   0  0  0  0  0  4           0  0  0
    3.1550   -3.7699   -3.4315 C   0  0  0  0  0  4           0  0  0
  1  8  1  0     0  0
  2 23  2  0     0  0
  3 24  2  0     0  0
  4 23  1  0     0  0
  5 25  1  0     0  0
  6  9  1  0     0  0
  6 10  1  0     0  0
  6 26  1  0     0  0
  7  8  1  0     0  0
  7  9  2  0     0  0
  8 10  2  0     0  0
  9 27  1  0     0  0
 10 25  1  0     0  0
 11 12  1  0     0  0
 11 16  2  0     0  0
 11 23  1  0     0  0
 12 17  2  0     0  0
 12 24  1  0     0  0
 13 15  2  0     0  0
 13 18  1  0     0  0
 13 24  1  0     0  0
 14 15  1  0     0  0
 14 19  2  0     0  0
 14 26  1  0     0  0
 16 21  1  0     0  0
 17 22  1  0     0  0
 18 20  2  0     0  0
 19 20  1  0     0  0
 21 22  2  0     0  0
 27 28  1  0     0  0
 28 29  1  0     0  0
 29 30  1  0     0  0
M  END
> <standard_type>
pIC50

> <# Confs.>
25

> <canonical_smiles>
ClC(N=C1CCCC)=C(CO)N1CC2=CC=CC(C(C3=CC=CC=C3C(O)=O)=O)=C2

> <standard_relation>
=

> <Publication_ID>
nan

> <predicted_activity_value>
5.721246399047171

> <actual_activity_value>
6.468521082957745

> <Compound>
11

> <standard_units>
nM

> hash
16394989093989855569

$$$$
10
XXILIB    08252103503D 0   0.00000     0.00000

 30 32  0     1  0            999 V2000
    5.0277   -1.4596    0.0265 Cl  0  0  0  0  0  1           0  0  0
    0.2391    4.7137    3.3960 O   0  0  0  0  0  2           0  0  0
   -0.6636    2.1343    5.6323 O   0  0  0  0  0  2           0  0  0
    1.1149    5.5379    5.3194 O   0  0  0  0  0  2           0  0  0
    1.5405   -2.8932   -1.3688 O   0  0  0  0  0  2           0  0  0
    1.4530    0.0000    0.0000 N   0  0  0  0  0  3           0  0  0
    3.5352    0.7623    0.0079 N   0  0  0  0  0  3           0  0  0
    3.5486   -0.6094    0.0071 C   0  0  0  0  0  4           0  0  0
    2.2669    1.1146    0.0000 C   0  0  0  0  0  4           0  0  0
    2.2623   -1.1246   -0.0085 C   0  0  0  0  0  4           0  0  0
    1.9086    3.4492    4.5028 C   0  0  0  0  0  4           0  0  0
    1.4623    2.1229    4.6194 C   0  0  0  0  0  4           0  0  0
   -0.4984    0.8466    3.6806 C   0  0  0  0  0  4           0  0  0
   -0.5412    0.0000    1.3970 C   0  0  0  0  0  4           0  0  0
   -0.0007    0.8557    2.3708 C   0  0  0  0  0  4           0  0  0
    3.2807    3.7291    4.4902 C   0  0  0  0  0  4           0  0  0
    2.4022    1.0844    4.6749 C   0  0  0  0  0  4           0  0  0
   -1.5377   -0.0273    4.0198 C   0  0  0  0  0  4           0  0  0
   -1.5765   -0.8731    1.7550 C   0  0  0  0  0  4           0  0  0
   -2.0722   -0.8844    3.0581 C   0  0  0  0  0  4           0  0  0
    4.2065    2.6888    4.5630 C   0  0  0  0  0  4           0  0  0
    3.7683    1.3688    4.6469 C   0  0  0  0  0  4           0  0  0
    1.0064    4.6075    4.3417 C   0  0  0  0  0  4           0  0  0
    0.0401    1.7326    4.7165 C   0  0  0  0  0  4           0  0  0
    1.7079   -2.4956   -0.0149 C   0  0  0  0  0  4           0  0  0
    0.0000    0.0000    0.0000 C   0  0  0  0  0  4           0  0  0
    1.7822    2.5218   -0.0006 C   0  0  0  0  0  4           0  0  0
    1.5938    3.0699   -1.4118 C   0  0  0  0  0  4           0  0  0
    1.0966    4.5132   -1.4236 C   0  0  0  0  0  4           0  0  0
   -0.2458    4.6814   -0.7275 C   0  0  0  0  0  4           0  0  0
  1  8  1  0     0  0
  2 23  2  0     0  0
  3 24  2  0     0  0
  4 23  1  0     0  0
  5 25  1  0     0  0
  6  9  1  0     0  0
  6 10  1  0     0  0
  6 26  1  0     0  0
  7  8  1  0     0  0
  7  9  2  0     0  0
  8 10  2  0     0  0
  9 27  1  0     0  0
 10 25  1  0     0  0
 11 12  1  0     0  0
 11 16  2  0     0  0
 11 23  1  0     0  0
 12 17  2  0     0  0
 12 24  1  0     0  0
 13 15  2  0     0  0
 13 18  1  0     0  0
 13 24  1  0     0  0
 14 15  1  0     0  0
 14 19  2  0     0  0
 14 26  1  0     0  0
 16 21  1  0     0  0
 17 22  1  0     0  0
 18 20  2  0     0  0
 19 20  1  0     0  0
 21 22  2  0     0  0
 27 28  1  0     0  0
 28 29  1  0     0  0
 29 30  1  0     0  0
M  END
> <standard_type>
pIC50

> <# Confs.>
25

> <canonical_smiles>
ClC(N=C1CCCC)=C(CO)N1CC2=CC=CC(C(C3=CC=CC=C3C(O)=O)=O)=C2

> <standard_relation>
=

> <Publication_ID>
nan

> <predicted_activity_value>
5.721246399047171

> <actual_activity_value>
6.468521082957745

> <Compound>
11

> <standard_units>
nM

> hash
16394989093989855569

$$$$
10
XXILIB    08252103503D 0   0.00000     0.00000

 30 32  0     1  0            999 V2000
    5.0277    1.4596   -0.0265 Cl  0  0  0  0  0  1           0  0  0
   -4.0156   -3.2481    1.5750 O   0  0  0  0  0  2           0  0  0
   -2.0412   -2.4422    5.2215 O   0  0  0  0  0  2           0  0  0
   -4.4757   -4.5653    3.3636 O   0  0  0  0  0  2           0  0  0
    1.5405    2.8932    1.3688 O   0  0  0  0  0  2           0  0  0
    1.4530   -0.0000    0.0000 N   0  0  0  0  0  3           0  0  0
    3.5352   -0.7623   -0.0079 N   0  0  0  0  0  3           0  0  0
    3.5486    0.6094   -0.0071 C   0  0  0  0  0  4           0  0  0
    2.2669   -1.1146    0.0000 C   0  0  0  0  0  4           0  0  0
    2.2623    1.1246    0.0085 C   0  0  0  0  0  4           0  0  0
   -2.2286   -4.4203    2.5965 C   0  0  0  0  0  4           0  0  0
   -1.3014   -3.7307    3.3945 C   0  0  0  0  0  4           0  0  0
   -1.3167   -1.2101    3.3636 C   0  0  0  0  0  4           0  0  0
   -0.5412   -0.0000    1.3970 C   0  0  0  0  0  4           0  0  0
   -0.7986   -1.2101    2.0617 C   0  0  0  0  0  4           0  0  0
   -1.8433   -5.5850    1.9209 C   0  0  0  0  0  4           0  0  0
   -0.0063   -4.2458    3.5435 C   0  0  0  0  0  4           0  0  0
   -1.5845    0.0065    4.0017 C   0  0  0  0  0  4           0  0  0
   -0.8212    1.2086    2.0476 C   0  0  0  0  0  4           0  0  0
   -1.3378    1.2106    3.3425 C   0  0  0  0  0  4           0  0  0
   -0.5470   -6.0787    2.0635 C   0  0  0  0  0  4           0  0  0
    0.3671   -5.4153    2.8794 C   0  0  0  0  0  4           0  0  0
   -3.6420   -4.0187    2.4474 C   0  0  0  0  0  4           0  0  0
   -1.5890   -2.4562    4.0854 C   0  0  0  0  0  4           0  0  0
    1.7079    2.4956    0.0149 C   0  0  0  0  0  4           0  0  0
    0.0000    0.0000    0.0000 C   0  0  0  0  0  4           0  0  0
    1.7822   -2.5218    0.0006 C   0  0  0  0  0  4           0  0  0
    2.5361   -3.3955   -0.9971 C   0  0  0  0  0  4           0  0  0
    2.4037   -2.8997   -2.4349 C   0  0  0  0  0  4           0  0  0
    3.1550   -3.7699   -3.4315 C   0  0  0  0  0  4           0  0  0
  1  8  1  0     0  0
  2 23  2  0     0  0
  3 24  2  0     0  0
  4 23  1  0     0  0
  5 25  1  0     0  0
  6  9  1  0     0  0
  6 10  1  0     0  0
  6 26  1  0     0  0
  7  8  1  0     0  0
  7  9  2  0     0  0
  8 10  2  0     0  0
  9 27  1  0     0  0
 10 25  1  0     0  0
 11 12  1  0     0  0
 11 16  2  0     0  0
 11 23  1  0     0  0
 12 17  2  0     0  0
 12 24  1  0     0  0
 13 15  2  0     0  0
 13 18  1  0     0  0
 13 24  1  0     0  0
 14 15  1  0     0  0
 14 19  2  0     0  0
 14 26  1  0     0  0
 16 21  1  0     0  0
 17 22  1  0     0  0
 18 20  2  0     0  0
 19 20  1  0     0  0
 21 22  2  0     0  0
 27 28  1  0     0  0
 28 29  1  0     0  0
 29 30  1  0     0  0
M  END
> <standard_type>
pIC50

> <# Confs.>
25

> <canonical_smiles>
ClC(N=C1CCCC)=C(CO)N1CC2=CC=CC(C(C3=CC=CC=C3C(O)=O)=O)=C2

> <standard_relation>
=

> <Publication_ID>
nan

> <predicted_activity_value>
5.721246399047171

> <actual_activity_value>
6.468521082957745

> <Compound>
11

> <standard_units>
nM

> hash
16394989093989855569

$$$$
10
XXILIB    08252103503D 0   0.00000     0.00000

 30 32  0     1  0            999 V2000
    5.0277   -1.4596    0.0265 Cl  0  0  0  0  0  1           0  0  0
    0.1630   -4.8001    3.7852 O   0  0  0  0  0  2           0  0  0
   -0.6727   -2.1642    5.6186 O   0  0  0  0  0  2           0  0  0
    1.3767   -5.4603    5.5845 O   0  0  0  0  0  2           0  0  0
    1.5405   -2.8932   -1.3688 O   0  0  0  0  0  2           0  0  0
    1.4530    0.0000    0.0000 N   0  0  0  0  0  3           0  0  0
    3.5352    0.7623    0.0079 N   0  0  0  0  0  3           0  0  0
    3.5486   -0.6094    0.0071 C   0  0  0  0  0  4           0  0  0
    2.2669    1.1146    0.0000 C   0  0  0  0  0  4           0  0  0
    2.2623   -1.1246   -0.0085 C   0  0  0  0  0  4           0  0  0
    1.9413   -3.4138    4.5111 C   0  0  0  0  0  4           0  0  0
    1.4639   -2.0986    4.6306 C   0  0  0  0  0  4           0  0  0
   -0.5153   -0.8647    3.6741 C   0  0  0  0  0  4           0  0  0
   -0.5412    0.0000    1.3970 C   0  0  0  0  0  4           0  0  0
   -0.0007   -0.8557    2.3708 C   0  0  0  0  0  4           0  0  0
    3.3138   -3.6514    4.3656 C   0  0  0  0  0  4           0  0  0
    2.3773   -1.0355    4.6499 C   0  0  0  0  0  4           0  0  0
   -1.5800   -0.0181    4.0034 C   0  0  0  0  0  4           0  0  0
   -1.6110    0.8361    1.7417 C   0  0  0  0  0  4           0  0  0
   -2.1250    0.8277    3.0376 C   0  0  0  0  0  4           0  0  0
    4.2116   -2.5844    4.3695 C   0  0  0  0  0  4           0  0  0
    3.7452   -1.2800    4.5195 C   0  0  0  0  0  4           0  0  0
    1.0769   -4.6096    4.5747 C   0  0  0  0  0  4           0  0  0
    0.0322   -1.7410    4.7134 C   0  0  0  0  0  4           0  0  0
    1.7079   -2.4956   -0.0149 C   0  0  0  0  0  4           0  0  0
    0.0000    0.0000    0.0000 C   0  0  0  0  0  4           0  0  0
    1.7822    2.5218   -0.0006 C   0  0  0  0  0  4           0  0  0
    1.5926    3.0707    1.4101 C   0  0  0  0  0  4           0  0  0
    1.0954    4.5140    1.4207 C   0  0  0  0  0  4           0  0  0
    0.9058    5.0633    2.8269 C   0  0  0  0  0  4           0  0  0
  1  8  1  0     0  0
  2 23  2  0     0  0
  3 24  2  0     0  0
  4 23  1  0     0  0
  5 25  1  0     0  0
  6  9  1  0     0  0
  6 10  1  0     0  0
  6 26  1  0     0  0
  7  8  1  0     0  0
  7  9  2  0     0  0
  8 10  2  0     0  0
  9 27  1  0     0  0
 10 25  1  0     0  0
 11 12  1  0     0  0
 11 16  2  0     0  0
 11 23  1  0     0  0
 12 17  2  0     0  0
 12 24  1  0     0  0
 13 15  2  0     0  0
 13 18  1  0     0  0
 13 24  1  0     0  0
 14 15  1  0     0  0
 14 19  2  0     0  0
 14 26  1  0     0  0
 16 21  1  0     0  0
 17 22  1  0     0  0
 18 20  2  0     0  0
 19 20  1  0     0  0
 21 22  2  0     0  0
 27 28  1  0     0  0
 28 29  1  0     0  0
 29 30  1  0     0  0
M  END
> <standard_type>
pIC50

> <# Confs.>
25

> <canonical_smiles>
ClC(N=C1CCCC)=C(CO)N1CC2=CC=CC(C(C3=CC=CC=C3C(O)=O)=O)=C2

> <standard_relation>
=

> <Publication_ID>
nan

> <predicted_activity_value>
5.721246399047171

> <actual_activity_value>
6.468521082957745

> <Compound>
11

> <standard_units>
nM

> hash
16394989093989855569

$$$$
10
XXILIB    08252103503D 0   0.00000     0.00000

 30 32  0     1  0            999 V2000
    5.0277   -1.4596    0.0265 Cl  0  0  0  0  0  1           0  0  0
    0.1630   -4.8001    3.7852 O   0  0  0  0  0  2           0  0  0
   -0.6727   -2.1642    5.6186 O   0  0  0  0  0  2           0  0  0
    1.3767   -5.4603    5.5845 O   0  0  0  0  0  2           0  0  0
    1.5405   -2.8932   -1.3688 O   0  0  0  0  0  2           0  0  0
    1.4530    0.0000    0.0000 N   0  0  0  0  0  3           0  0  0
    3.5352    0.7623    0.0079 N   0  0  0  0  0  3           0  0  0
    3.5486   -0.6094    0.0071 C   0  0  0  0  0  4           0  0  0
    2.2669    1.1146    0.0000 C   0  0  0  0  0  4           0  0  0
    2.2623   -1.1246   -0.0085 C   0  0  0  0  0  4           0  0  0
    1.9413   -3.4138    4.5111 C   0  0  0  0  0  4           0  0  0
    1.4639   -2.0986    4.6306 C   0  0  0  0  0  4           0  0  0
   -0.5153   -0.8647    3.6741 C   0  0  0  0  0  4           0  0  0
   -0.5412    0.0000    1.3970 C   0  0  0  0  0  4           0  0  0
   -0.0007   -0.8557    2.3708 C   0  0  0  0  0  4           0  0  0
    3.3138   -3.6514    4.3656 C   0  0  0  0  0  4           0  0  0
    2.3773   -1.0355    4.6499 C   0  0  0  0  0  4           0  0  0
   -1.5800   -0.0181    4.0034 C   0  0  0  0  0  4           0  0  0
   -1.6110    0.8361    1.7417 C   0  0  0  0  0  4           0  0  0
   -2.1250    0.8277    3.0376 C   0  0  0  0  0  4           0  0  0
    4.2116   -2.5844    4.3695 C   0  0  0  0  0  4           0  0  0
    3.7452   -1.2800    4.5195 C   0  0  0  0  0  4           0  0  0
    1.0769   -4.6096    4.5747 C   0  0  0  0  0  4           0  0  0
    0.0322   -1.7410    4.7134 C   0  0  0  0  0  4           0  0  0
    1.7079   -2.4956   -0.0149 C   0  0  0  0  0  4           0  0  0
    0.0000    0.0000    0.0000 C   0  0  0  0  0  4           0  0  0
    1.7822    2.5218   -0.0006 C   0  0  0  0  0  4           0  0  0
    2.5361    3.3955    0.9971 C   0  0  0  0  0  4           0  0  0
    2.4037    2.8997    2.4349 C   0  0  0  0  0  4           0  0  0
    3.1550    3.7699    3.4315 C   0  0  0  0  0  4           0  0  0
  1  8  1  0     0  0
  2 23  2  0     0  0
  3 24  2  0     0  0
  4 23  1  0     0  0
  5 25  1  0     0  0
  6  9  1  0     0  0
  6 10  1  0     0  0
  6 26  1  0     0  0
  7  8  1  0     0  0
  7  9  2  0     0  0
  8 10  2  0     0  0
  9 27  1  0     0  0
 10 25  1  0     0  0
 11 12  1  0     0  0
 11 16  2  0     0  0
 11 23  1  0     0  0
 12 17  2  0     0  0
 12 24  1  0     0  0
 13 15  2  0     0  0
 13 18  1  0     0  0
 13 24  1  0     0  0
 14 15  1  0     0  0
 14 19  2  0     0  0
 14 26  1  0     0  0
 16 21  1  0     0  0
 17 22  1  0     0  0
 18 20  2  0     0  0
 19 20  1  0     0  0
 21 22  2  0     0  0
 27 28  1  0     0  0
 28 29  1  0     0  0
 29 30  1  0     0  0
M  END
> <standard_type>
pIC50

> <# Confs.>
25

> <canonical_smiles>
ClC(N=C1CCCC)=C(CO)N1CC2=CC=CC(C(C3=CC=CC=C3C(O)=O)=O)=C2

> <standard_relation>
=

> <Publication_ID>
nan

> <predicted_activity_value>
5.721246399047171

> <actual_activity_value>
6.468521082957745

> <Compound>
11

> <standard_units>
nM

> hash
16394989093989855569

$$$$
10
XXILIB    08252103503D 0   0.00000     0.00000

 30 32  0     1  0            999 V2000
    5.0277   -1.4596    0.0265 Cl  0  0  0  0  0  1           0  0  0
   -3.1401    4.8058    1.7752 O   0  0  0  0  0  2           0  0  0
   -2.4575    2.5102    4.9374 O   0  0  0  0  0  2           0  0  0
   -3.4955    5.4780    3.9125 O   0  0  0  0  0  2           0  0  0
    2.4278   -3.2538   -0.9771 O   0  0  0  0  0  2           0  0  0
    1.4530    0.0000    0.0000 N   0  0  0  0  0  3           0  0  0
    3.5352    0.7623    0.0079 N   0  0  0  0  0  3           0  0  0
    3.5486   -0.6094    0.0071 C   0  0  0  0  0  4           0  0  0
    2.2669    1.1146   -0.0000 C   0  0  0  0  0  4           0  0  0
    2.2623   -1.1246   -0.0085 C   0  0  0  0  0  4           0  0  0
   -1.2960    4.8475    3.2614 C   0  0  0  0  0  4           0  0  0
   -0.7656    3.6451    3.7564 C   0  0  0  0  0  4           0  0  0
   -1.2928    1.2101    3.3729 C   0  0  0  0  0  4           0  0  0
   -0.5412    0.0000    1.3970 C   0  0  0  0  0  4           0  0  0
   -0.7986    1.2101    2.0617 C   0  0  0  0  0  4           0  0  0
   -0.4566    5.9470    3.0425 C   0  0  0  0  0  4           0  0  0
    0.6142    3.5447    3.9823 C   0  0  0  0  0  4           0  0  0
   -1.5247   -0.0065    4.0249 C   0  0  0  0  0  4           0  0  0
   -0.7724   -1.2086    2.0665 C   0  0  0  0  0  4           0  0  0
   -1.2630   -1.2106    3.3715 C   0  0  0  0  0  4           0  0  0
    0.9121    5.8403    3.2869 C   0  0  0  0  0  4           0  0  0
    1.4476    4.6395    3.7480 C   0  0  0  0  0  4           0  0  0
   -2.7162    5.0306    2.8997 C   0  0  0  0  0  4           0  0  0
   -1.5778    2.4562    4.0898 C   0  0  0  0  0  4           0  0  0
    1.7079   -2.4956   -0.0149 C   0  0  0  0  0  4           0  0  0
    0.0000    0.0000    0.0000 C   0  0  0  0  0  4           0  0  0
    1.7822    2.5218   -0.0006 C   0  0  0  0  0  4           0  0  0
    2.5369    3.3949   -0.9983 C   0  0  0  0  0  4           0  0  0
    2.0472    4.8408   -1.0068 C   0  0  0  0  0  4           0  0  0
    2.7987    5.7133   -2.0012 C   0  0  0  0  0  4           0  0  0
  1  8  1  0     0  0
  2 23  2  0     0  0
  3 24  2  0     0  0
  4 23  1  0     0  0
  5 25  1  0     0  0
  6  9  1  0     0  0
  6 10  1  0     0  0
  6 26  1  0     0  0
  7  8  1  0     0  0
  7  9  2  0     0  0
  8 10  2  0     0  0
  9 27  1  0     0  0
 10 25  1  0     0  0
 11 12  1  0     0  0
 11 16  2  0     0  0
 11 23  1  0     0  0
 12 17  2  0     0  0
 12 24  1  0     0  0
 13 15  2  0     0  0
 13 18  1  0     0  0
 13 24  1  0     0  0
 14 15  1  0     0  0
 14 19  2  0     0  0
 14 26  1  0     0  0
 16 21  1  0     0  0
 17 22  1  0     0  0
 18 20  2  0     0  0
 19 20  1  0     0  0
 21 22  2  0     0  0
 27 28  1  0     0  0
 28 29  1  0     0  0
 29 30  1  0     0  0
M  END
> <standard_type>
pIC50

> <# Confs.>
25

> <canonical_smiles>
ClC(N=C1CCCC)=C(CO)N1CC2=CC=CC(C(C3=CC=CC=C3C(O)=O)=O)=C2

> <standard_relation>
=

> <Publication_ID>
nan

> <predicted_activity_value>
5.721246399047171

> <actual_activity_value>
6.468521082957745

> <Compound>
11

> <standard_units>
nM

> hash
16394989093989855569

$$$$
10
XXILIB    08252103503D 0   0.00000     0.00000

 30 32  0     1  0            999 V2000
    5.0277   -1.4596    0.0265 Cl  0  0  0  0  0  1           0  0  0
    0.1630   -4.8001    3.7852 O   0  0  0  0  0  2           0  0  0
   -0.6727   -2.1642    5.6186 O   0  0  0  0  0  2           0  0  0
    1.3767   -5.4603    5.5845 O   0  0  0  0  0  2           0  0  0
    1.5405   -2.8932   -1.3688 O   0  0  0  0  0  2           0  0  0
    1.4530    0.0000    0.0000 N   0  0  0  0  0  3           0  0  0
    3.5352    0.7623    0.0079 N   0  0  0  0  0  3           0  0  0
    3.5486   -0.6094    0.0071 C   0  0  0  0  0  4           0  0  0
    2.2669    1.1146    0.0000 C   0  0  0  0  0  4           0  0  0
    2.2623   -1.1246   -0.0085 C   0  0  0  0  0  4           0  0  0
    1.9413   -3.4138    4.5111 C   0  0  0  0  0  4           0  0  0
    1.4639   -2.0986    4.6306 C   0  0  0  0  0  4           0  0  0
   -0.5153   -0.8647    3.6741 C   0  0  0  0  0  4           0  0  0
   -0.5412    0.0000    1.3970 C   0  0  0  0  0  4           0  0  0
   -0.0007   -0.8557    2.3708 C   0  0  0  0  0  4           0  0  0
    3.3138   -3.6514    4.3656 C   0  0  0  0  0  4           0  0  0
    2.3773   -1.0355    4.6499 C   0  0  0  0  0  4           0  0  0
   -1.5800   -0.0181    4.0034 C   0  0  0  0  0  4           0  0  0
   -1.6110    0.8361    1.7417 C   0  0  0  0  0  4           0  0  0
   -2.1250    0.8277    3.0376 C   0  0  0  0  0  4           0  0  0
    4.2116   -2.5844    4.3695 C   0  0  0  0  0  4           0  0  0
    3.7452   -1.2800    4.5195 C   0  0  0  0  0  4           0  0  0
    1.0769   -4.6096    4.5747 C   0  0  0  0  0  4           0  0  0
    0.0322   -1.7410    4.7134 C   0  0  0  0  0  4           0  0  0
    1.7079   -2.4956   -0.0149 C   0  0  0  0  0  4           0  0  0
    0.0000    0.0000    0.0000 C   0  0  0  0  0  4           0  0  0
    1.7822    2.5218   -0.0006 C   0  0  0  0  0  4           0  0  0
    1.5938    3.0699   -1.4118 C   0  0  0  0  0  4           0  0  0
    1.0966    4.5132   -1.4236 C   0  0  0  0  0  4           0  0  0
    0.9081    5.0617   -2.8302 C   0  0  0  0  0  4           0  0  0
  1  8  1  0     0  0
  2 23  2  0     0  0
  3 24  2  0     0  0
  4 23  1  0     0  0
  5 25  1  0     0  0
  6  9  1  0     0  0
  6 10  1  0     0  0
  6 26  1  0     0  0
  7  8  1  0     0  0
  7  9  2  0     0  0
  8 10  2  0     0  0
  9 27  1  0     0  0
 10 25  1  0     0  0
 11 12  1  0     0  0
 11 16  2  0     0  0
 11 23  1  0     0  0
 12 17  2  0     0  0
 12 24  1  0     0  0
 13 15  2  0     0  0
 13 18  1  0     0  0
 13 24  1  0     0  0
 14 15  1  0     0  0
 14 19  2  0     0  0
 14 26  1  0     0  0
 16 21  1  0     0  0
 17 22  1  0     0  0
 18 20  2  0     0  0
 19 20  1  0     0  0
 21 22  2  0     0  0
 27 28  1  0     0  0
 28 29  1  0     0  0
 29 30  1  0     0  0
M  END
> <standard_type>
pIC50

> <# Confs.>
25

> <canonical_smiles>
ClC(N=C1CCCC)=C(CO)N1CC2=CC=CC(C(C3=CC=CC=C3C(O)=O)=O)=C2

> <standard_relation>
=

> <Publication_ID>
nan

> <predicted_activity_value>
5.721246399047171

> <actual_activity_value>
6.468521082957745

> <Compound>
11

> <standard_units>
nM

> hash
16394989093989855569

$$$$
10
XXILIB    08252103503D 0   0.00000     0.00000

 30 32  0     1  0            999 V2000
    5.0277    1.4596   -0.0265 Cl  0  0  0  0  0  1           0  0  0
   -4.5675   -2.1559    5.3926 O   0  0  0  0  0  2           0  0  0
   -1.9027   -3.4763    3.4886 O   0  0  0  0  0  2           0  0  0
   -4.3906   -4.2106    6.3376 O   0  0  0  0  0  2           0  0  0
    1.5405    2.8932    1.3688 O   0  0  0  0  0  2           0  0  0
    1.4530   -0.0000    0.0000 N   0  0  0  0  0  3           0  0  0
    3.5352   -0.7623   -0.0079 N   0  0  0  0  0  3           0  0  0
    3.5486    0.6094   -0.0071 C   0  0  0  0  0  4           0  0  0
    2.2669   -1.1146    0.0000 C   0  0  0  0  0  4           0  0  0
    2.2623    1.1246    0.0085 C   0  0  0  0  0  4           0  0  0
   -2.5233   -2.7401    6.4371 C   0  0  0  0  0  4           0  0  0
   -1.4696   -2.4403    5.5585 C   0  0  0  0  0  4           0  0  0
   -1.3167   -1.2101    3.3636 C   0  0  0  0  0  4           0  0  0
   -0.5412    0.0000    1.3970 C   0  0  0  0  0  4           0  0  0
   -0.7986   -1.2101    2.0617 C   0  0  0  0  0  4           0  0  0
   -2.2973   -2.7706    7.8189 C   0  0  0  0  0  4           0  0  0
   -0.2073   -2.1272    6.0815 C   0  0  0  0  0  4           0  0  0
   -1.5845    0.0065    4.0017 C   0  0  0  0  0  4           0  0  0
   -0.8212    1.2086    2.0476 C   0  0  0  0  0  4           0  0  0
   -1.3378    1.2106    3.3425 C   0  0  0  0  0  4           0  0  0
   -1.0329   -2.4737    8.3266 C   0  0  0  0  0  4           0  0  0
    0.0077   -2.1447    7.4604 C   0  0  0  0  0  4           0  0  0
   -3.9113   -2.9905    5.9988 C   0  0  0  0  0  4           0  0  0
   -1.5890   -2.4562    4.0854 C   0  0  0  0  0  4           0  0  0
    1.7079    2.4956    0.0149 C   0  0  0  0  0  4           0  0  0
    0.0000    0.0000    0.0000 C   0  0  0  0  0  4           0  0  0
    1.7822   -2.5218    0.0006 C   0  0  0  0  0  4           0  0  0
    2.5361   -3.3955   -0.9971 C   0  0  0  0  0  4           0  0  0
    2.0464   -4.8414   -1.0045 C   0  0  0  0  0  4           0  0  0
    2.7972   -5.7145   -1.9990 C   0  0  0  0  0  4           0  0  0
  1  8  1  0     0  0
  2 23  2  0     0  0
  3 24  2  0     0  0
  4 23  1  0     0  0
  5 25  1  0     0  0
  6  9  1  0     0  0
  6 10  1  0     0  0
  6 26  1  0     0  0
  7  8  1  0     0  0
  7  9  2  0     0  0
  8 10  2  0     0  0
  9 27  1  0     0  0
 10 25  1  0     0  0
 11 12  1  0     0  0
 11 16  2  0     0  0
 11 23  1  0     0  0
 12 17  2  0     0  0
 12 24  1  0     0  0
 13 15  2  0     0  0
 13 18  1  0     0  0
 13 24  1  0     0  0
 14 15  1  0     0  0
 14 19  2  0     0  0
 14 26  1  0     0  0
 16 21  1  0     0  0
 17 22  1  0     0  0
 18 20  2  0     0  0
 19 20  1  0     0  0
 21 22  2  0     0  0
 27 28  1  0     0  0
 28 29  1  0     0  0
 29 30  1  0     0  0
M  END
> <standard_type>
pIC50

> <# Confs.>
25

> <canonical_smiles>
ClC(N=C1CCCC)=C(CO)N1CC2=CC=CC(C(C3=CC=CC=C3C(O)=O)=O)=C2

> <standard_relation>
=

> <Publication_ID>
nan

> <predicted_activity_value>
5.721246399047171

> <actual_activity_value>
6.468521082957745

> <Compound>
11

> <standard_units>
nM

> hash
16394989093989855569

$$$$
10
XXILIB    08252103503D 0   0.00000     0.00000

 30 32  0     1  0            999 V2000
    5.0277    1.4596   -0.0265 Cl  0  0  0  0  0  1           0  0  0
   -4.5618    1.9286    2.8700 O   0  0  0  0  0  2           0  0  0
   -1.4778    2.5219    5.3067 O   0  0  0  0  0  2           0  0  0
   -5.3976    3.6431    4.0979 O   0  0  0  0  0  2           0  0  0
    1.5405    2.8932    1.3688 O   0  0  0  0  0  2           0  0  0
    1.4530   -0.0000    0.0000 N   0  0  0  0  0  3           0  0  0
    3.5352   -0.7623   -0.0079 N   0  0  0  0  0  3           0  0  0
    3.5486    0.6094   -0.0071 C   0  0  0  0  0  4           0  0  0
    2.2669   -1.1146    0.0000 C   0  0  0  0  0  4           0  0  0
    2.2623    1.1246    0.0085 C   0  0  0  0  0  4           0  0  0
   -3.3204    3.9431    2.9779 C   0  0  0  0  0  4           0  0  0
   -1.9879    3.6319    3.2935 C   0  0  0  0  0  4           0  0  0
   -1.2928    1.2101    3.3729 C   0  0  0  0  0  4           0  0  0
   -0.5412    0.0000    1.3970 C   0  0  0  0  0  4           0  0  0
   -0.7986    1.2101    2.0617 C   0  0  0  0  0  4           0  0  0
   -3.6194    5.1194    2.2790 C   0  0  0  0  0  4           0  0  0
   -0.9626    4.4845    2.8613 C   0  0  0  0  0  4           0  0  0
   -1.5247   -0.0065    4.0249 C   0  0  0  0  0  4           0  0  0
   -0.7724   -1.2086    2.0665 C   0  0  0  0  0  4           0  0  0
   -1.2630   -1.2106    3.3715 C   0  0  0  0  0  4           0  0  0
   -2.5920    5.9684    1.8689 C   0  0  0  0  0  4           0  0  0
   -1.2660    5.6476    2.1522 C   0  0  0  0  0  4           0  0  0
   -4.4660    3.0687    3.3007 C   0  0  0  0  0  4           0  0  0
   -1.5778    2.4562    4.0898 C   0  0  0  0  0  4           0  0  0
    1.7079    2.4956    0.0149 C   0  0  0  0  0  4           0  0  0
   -0.0000    0.0000    0.0000 C   0  0  0  0  0  4           0  0  0
    1.7822   -2.5218    0.0006 C   0  0  0  0  0  4           0  0  0
    2.5361   -3.3955   -0.9971 C   0  0  0  0  0  4           0  0  0
    2.0464   -4.8414   -1.0045 C   0  0  0  0  0  4           0  0  0
    2.7972   -5.7145   -1.9990 C   0  0  0  0  0  4           0  0  0
  1  8  1  0     0  0
  2 23  2  0     0  0
  3 24  2  0     0  0
  4 23  1  0     0  0
  5 25  1  0     0  0
  6  9  1  0     0  0
  6 10  1  0     0  0
  6 26  1  0     0  0
  7  8  1  0     0  0
  7  9  2  0     0  0
  8 10  2  0     0  0
  9 27  1  0     0  0
 10 25  1  0     0  0
 11 12  1  0     0  0
 11 16  2  0     0  0
 11 23  1  0     0  0
 12 17  2  0     0  0
 12 24  1  0     0  0
 13 15  2  0     0  0
 13 18  1  0     0  0
 13 24  1  0     0  0
 14 15  1  0     0  0
 14 19  2  0     0  0
 14 26  1  0     0  0
 16 21  1  0     0  0
 17 22  1  0     0  0
 18 20  2  0     0  0
 19 20  1  0     0  0
 21 22  2  0     0  0
 27 28  1  0     0  0
 28 29  1  0     0  0
 29 30  1  0     0  0
M  END
> <standard_type>
pIC50

> <# Confs.>
25

> <canonical_smiles>
ClC(N=C1CCCC)=C(CO)N1CC2=CC=CC(C(C3=CC=CC=C3C(O)=O)=O)=C2

> <standard_relation>
=

> <Publication_ID>
nan

> <predicted_activity_value>
5.721246399047171

> <actual_activity_value>
6.468521082957745

> <Compound>
11

> <standard_units>
nM

> hash
16394989093989855569

$$$$
10
XXILIB    08252103503D 0   0.00000     0.00000

 30 32  0     1  0            999 V2000
    5.0277    1.4596   -0.0265 Cl  0  0  0  0  0  1           0  0  0
    0.1630   -4.8001    3.7852 O   0  0  0  0  0  2           0  0  0
   -0.6727   -2.1642    5.6186 O   0  0  0  0  0  2           0  0  0
    1.3767   -5.4603    5.5845 O   0  0  0  0  0  2           0  0  0
    1.5405    2.8932    1.3688 O   0  0  0  0  0  2           0  0  0
    1.4530   -0.0000    0.0000 N   0  0  0  0  0  3           0  0  0
    3.5352   -0.7623   -0.0079 N   0  0  0  0  0  3           0  0  0
    3.5486    0.6094   -0.0071 C   0  0  0  0  0  4           0  0  0
    2.2669   -1.1146    0.0000 C   0  0  0  0  0  4           0  0  0
    2.2623    1.1246    0.0085 C   0  0  0  0  0  4           0  0  0
    1.9413   -3.4138    4.5111 C   0  0  0  0  0  4           0  0  0
    1.4639   -2.0986    4.6306 C   0  0  0  0  0  4           0  0  0
   -0.5153   -0.8647    3.6741 C   0  0  0  0  0  4           0  0  0
   -0.5412    0.0000    1.3970 C   0  0  0  0  0  4           0  0  0
   -0.0007   -0.8557    2.3708 C   0  0  0  0  0  4           0  0  0
    3.3138   -3.6514    4.3656 C   0  0  0  0  0  4           0  0  0
    2.3773   -1.0355    4.6499 C   0  0  0  0  0  4           0  0  0
   -1.5800   -0.0181    4.0034 C   0  0  0  0  0  4           0  0  0
   -1.6110    0.8361    1.7417 C   0  0  0  0  0  4           0  0  0
   -2.1250    0.8277    3.0376 C   0  0  0  0  0  4           0  0  0
    4.2116   -2.5844    4.3695 C   0  0  0  0  0  4           0  0  0
    3.7452   -1.2800    4.5195 C   0  0  0  0  0  4           0  0  0
    1.0769   -4.6096    4.5747 C   0  0  0  0  0  4           0  0  0
    0.0322   -1.7410    4.7134 C   0  0  0  0  0  4           0  0  0
    1.7079    2.4956    0.0149 C   0  0  0  0  0  4           0  0  0
    0.0000    0.0000    0.0000 C   0  0  0  0  0  4           0  0  0
    1.7822   -2.5218    0.0006 C   0  0  0  0  0  4           0  0  0
    2.5361   -3.3955   -0.9971 C   0  0  0  0  0  4           0  0  0
    2.0464   -4.8414   -1.0045 C   0  0  0  0  0  4           0  0  0
    2.7972   -5.7145   -1.9990 C   0  0  0  0  0  4           0  0  0
  1  8  1  0     0  0
  2 23  2  0     0  0
  3 24  2  0     0  0
  4 23  1  0     0  0
  5 25  1  0     0  0
  6  9  1  0     0  0
  6 10  1  0     0  0
  6 26  1  0     0  0
  7  8  1  0     0  0
  7  9  2  0     0  0
  8 10  2  0     0  0
  9 27  1  0     0  0
 10 25  1  0     0  0
 11 12  1  0     0  0
 11 16  2  0     0  0
 11 23  1  0     0  0
 12 17  2  0     0  0
 12 24  1  0     0  0
 13 15  2  0     0  0
 13 18  1  0     0  0
 13 24  1  0     0  0
 14 15  1  0     0  0
 14 19  2  0     0  0
 14 26  1  0     0  0
 16 21  1  0     0  0
 17 22  1  0     0  0
 18 20  2  0     0  0
 19 20  1  0     0  0
 21 22  2  0     0  0
 27 28  1  0     0  0
 28 29  1  0     0  0
 29 30  1  0     0  0
M  END
> <standard_type>
pIC50

> <# Confs.>
25

> <canonical_smiles>
ClC(N=C1CCCC)=C(CO)N1CC2=CC=CC(C(C3=CC=CC=C3C(O)=O)=O)=C2

> <standard_relation>
=

> <Publication_ID>
nan

> <predicted_activity_value>
5.721246399047171

> <actual_activity_value>
6.468521082957745

> <Compound>
11

> <standard_units>
nM

> hash
16394989093989855569

$$$$
10
XXILIB    08252103503D 0   0.00000     0.00000

 30 32  0     1  0            999 V2000
    5.0277    1.4596   -0.0265 Cl  0  0  0  0  0  1           0  0  0
   -4.5618    1.9286    2.8700 O   0  0  0  0  0  2           0  0  0
   -1.4778    2.5219    5.3067 O   0  0  0  0  0  2           0  0  0
   -5.3976    3.6431    4.0979 O   0  0  0  0  0  2           0  0  0
    1.5405    2.8932    1.3688 O   0  0  0  0  0  2           0  0  0
    1.4530   -0.0000    0.0000 N   0  0  0  0  0  3           0  0  0
    3.5352   -0.7623   -0.0079 N   0  0  0  0  0  3           0  0  0
    3.5486    0.6094   -0.0071 C   0  0  0  0  0  4           0  0  0
    2.2669   -1.1146    0.0000 C   0  0  0  0  0  4           0  0  0
    2.2623    1.1246    0.0085 C   0  0  0  0  0  4           0  0  0
   -3.3204    3.9431    2.9779 C   0  0  0  0  0  4           0  0  0
   -1.9879    3.6319    3.2935 C   0  0  0  0  0  4           0  0  0
   -1.2928    1.2101    3.3729 C   0  0  0  0  0  4           0  0  0
   -0.5412    0.0000    1.3970 C   0  0  0  0  0  4           0  0  0
   -0.7986    1.2101    2.0617 C   0  0  0  0  0  4           0  0  0
   -3.6194    5.1194    2.2790 C   0  0  0  0  0  4           0  0  0
   -0.9626    4.4845    2.8613 C   0  0  0  0  0  4           0  0  0
   -1.5247   -0.0065    4.0249 C   0  0  0  0  0  4           0  0  0
   -0.7724   -1.2086    2.0665 C   0  0  0  0  0  4           0  0  0
   -1.2630   -1.2106    3.3715 C   0  0  0  0  0  4           0  0  0
   -2.5920    5.9684    1.8689 C   0  0  0  0  0  4           0  0  0
   -1.2660    5.6476    2.1522 C   0  0  0  0  0  4           0  0  0
   -4.4660    3.0687    3.3007 C   0  0  0  0  0  4           0  0  0
   -1.5778    2.4562    4.0898 C   0  0  0  0  0  4           0  0  0
    1.7079    2.4956    0.0149 C   0  0  0  0  0  4           0  0  0
   -0.0000    0.0000    0.0000 C   0  0  0  0  0  4           0  0  0
    1.7822   -2.5218    0.0006 C   0  0  0  0  0  4           0  0  0
    2.5361   -3.3955   -0.9971 C   0  0  0  0  0  4           0  0  0
    2.4037   -2.8997   -2.4349 C   0  0  0  0  0  4           0  0  0
    3.1550   -3.7699   -3.4315 C   0  0  0  0  0  4           0  0  0
  1  8  1  0     0  0
  2 23  2  0     0  0
  3 24  2  0     0  0
  4 23  1  0     0  0
  5 25  1  0     0  0
  6  9  1  0     0  0
  6 10  1  0     0  0
  6 26  1  0     0  0
  7  8  1  0     0  0
  7  9  2  0     0  0
  8 10  2  0     0  0
  9 27  1  0     0  0
 10 25  1  0     0  0
 11 12  1  0     0  0
 11 16  2  0     0  0
 11 23  1  0     0  0
 12 17  2  0     0  0
 12 24  1  0     0  0
 13 15  2  0     0  0
 13 18  1  0     0  0
 13 24  1  0     0  0
 14 15  1  0     0  0
 14 19  2  0     0  0
 14 26  1  0     0  0
 16 21  1  0     0  0
 17 22  1  0     0  0
 18 20  2  0     0  0
 19 20  1  0     0  0
 21 22  2  0     0  0
 27 28  1  0     0  0
 28 29  1  0     0  0
 29 30  1  0     0  0
M  END
> <standard_type>
pIC50

> <# Confs.>
25

> <canonical_smiles>
ClC(N=C1CCCC)=C(CO)N1CC2=CC=CC(C(C3=CC=CC=C3C(O)=O)=O)=C2

> <standard_relation>
=

> <Publication_ID>
nan

> <predicted_activity_value>
5.721246399047171

> <actual_activity_value>
6.468521082957745

> <Compound>
11

> <standard_units>
nM

> hash
16394989093989855569

$$$$
10
XXILIB    08252103503D 0   0.00000     0.00000

 30 32  0     1  0            999 V2000
    5.0277    1.4596   -0.0265 Cl  0  0  0  0  0  1           0  0  0
   -4.5675   -2.1559    5.3926 O   0  0  0  0  0  2           0  0  0
   -1.9027   -3.4763    3.4886 O   0  0  0  0  0  2           0  0  0
   -4.3906   -4.2106    6.3376 O   0  0  0  0  0  2           0  0  0
    1.5405    2.8932    1.3688 O   0  0  0  0  0  2           0  0  0
    1.4530   -0.0000    0.0000 N   0  0  0  0  0  3           0  0  0
    3.5352   -0.7623   -0.0079 N   0  0  0  0  0  3           0  0  0
    3.5486    0.6094   -0.0071 C   0  0  0  0  0  4           0  0  0
    2.2669   -1.1146    0.0000 C   0  0  0  0  0  4           0  0  0
    2.2623    1.1246    0.0085 C   0  0  0  0  0  4           0  0  0
   -2.5233   -2.7401    6.4371 C   0  0  0  0  0  4           0  0  0
   -1.4696   -2.4403    5.5585 C   0  0  0  0  0  4           0  0  0
   -1.3167   -1.2101    3.3636 C   0  0  0  0  0  4           0  0  0
   -0.5412    0.0000    1.3970 C   0  0  0  0  0  4           0  0  0
   -0.7986   -1.2101    2.0617 C   0  0  0  0  0  4           0  0  0
   -2.2973   -2.7706    7.8189 C   0  0  0  0  0  4           0  0  0
   -0.2073   -2.1272    6.0815 C   0  0  0  0  0  4           0  0  0
   -1.5845    0.0065    4.0017 C   0  0  0  0  0  4           0  0  0
   -0.8212    1.2086    2.0476 C   0  0  0  0  0  4           0  0  0
   -1.3378    1.2106    3.3425 C   0  0  0  0  0  4           0  0  0
   -1.0329   -2.4737    8.3266 C   0  0  0  0  0  4           0  0  0
    0.0077   -2.1447    7.4604 C   0  0  0  0  0  4           0  0  0
   -3.9113   -2.9905    5.9988 C   0  0  0  0  0  4           0  0  0
   -1.5890   -2.4562    4.0854 C   0  0  0  0  0  4           0  0  0
    1.7079    2.4956    0.0149 C   0  0  0  0  0  4           0  0  0
    0.0000    0.0000    0.0000 C   0  0  0  0  0  4           0  0  0
    1.7822   -2.5218    0.0006 C   0  0  0  0  0  4           0  0  0
    2.5361   -3.3955   -0.9971 C   0  0  0  0  0  4           0  0  0
    2.4037   -2.8997   -2.4349 C   0  0  0  0  0  4           0  0  0
    3.1550   -3.7699   -3.4315 C   0  0  0  0  0  4           0  0  0
  1  8  1  0     0  0
  2 23  2  0     0  0
  3 24  2  0     0  0
  4 23  1  0     0  0
  5 25  1  0     0  0
  6  9  1  0     0  0
  6 10  1  0     0  0
  6 26  1  0     0  0
  7  8  1  0     0  0
  7  9  2  0     0  0
  8 10  2  0     0  0
  9 27  1  0     0  0
 10 25  1  0     0  0
 11 12  1  0     0  0
 11 16  2  0     0  0
 11 23  1  0     0  0
 12 17  2  0     0  0
 12 24  1  0     0  0
 13 15  2  0     0  0
 13 18  1  0     0  0
 13 24  1  0     0  0
 14 15  1  0     0  0
 14 19  2  0     0  0
 14 26  1  0     0  0
 16 21  1  0     0  0
 17 22  1  0     0  0
 18 20  2  0     0  0
 19 20  1  0     0  0
 21 22  2  0     0  0
 27 28  1  0     0  0
 28 29  1  0     0  0
 29 30  1  0     0  0
M  END
> <standard_type>
pIC50

> <# Confs.>
25

> <canonical_smiles>
ClC(N=C1CCCC)=C(CO)N1CC2=CC=CC(C(C3=CC=CC=C3C(O)=O)=O)=C2

> <standard_relation>
=

> <Publication_ID>
nan

> <predicted_activity_value>
5.721246399047171

> <actual_activity_value>
6.468521082957745

> <Compound>
11

> <standard_units>
nM

> hash
16394989093989855569

$$$$
10
XXILIB    08252103503D 0   0.00000     0.00000

 30 32  0     1  0            999 V2000
    5.0277   -1.4596    0.0265 Cl  0  0  0  0  0  1           0  0  0
   -3.8187    3.1587    1.2963 O   0  0  0  0  0  2           0  0  0
   -2.0089    2.4422    5.2340 O   0  0  0  0  0  2           0  0  0
   -4.5779    4.1868    3.1705 O   0  0  0  0  0  2           0  0  0
    2.4278   -3.2538   -0.9771 O   0  0  0  0  0  2           0  0  0
    1.4530    0.0000    0.0000 N   0  0  0  0  0  3           0  0  0
    3.5352    0.7623    0.0079 N   0  0  0  0  0  3           0  0  0
    3.5486   -0.6094    0.0071 C   0  0  0  0  0  4           0  0  0
    2.2669    1.1146   -0.0000 C   0  0  0  0  0  4           0  0  0
    2.2623   -1.1246   -0.0085 C   0  0  0  0  0  4           0  0  0
   -2.2782    4.3989    2.6000 C   0  0  0  0  0  4           0  0  0
   -1.3249    3.7307    3.3853 C   0  0  0  0  0  4           0  0  0
   -1.2928    1.2101    3.3729 C   0  0  0  0  0  4           0  0  0
   -0.5412   -0.0000    1.3970 C   0  0  0  0  0  4           0  0  0
   -0.7986    1.2101    2.0617 C   0  0  0  0  0  4           0  0  0
   -1.9710    5.6402    2.0290 C   0  0  0  0  0  4           0  0  0
   -0.0529    4.2961    3.5505 C   0  0  0  0  0  4           0  0  0
   -1.5247   -0.0065    4.0249 C   0  0  0  0  0  4           0  0  0
   -0.7724   -1.2086    2.0665 C   0  0  0  0  0  4           0  0  0
   -1.2630   -1.2106    3.3715 C   0  0  0  0  0  4           0  0  0
   -0.7077    6.2008    2.2142 C   0  0  0  0  0  4           0  0  0
    0.2520    5.5264    2.9664 C   0  0  0  0  0  4           0  0  0
   -3.6120    3.8491    2.2838 C   0  0  0  0  0  4           0  0  0
   -1.5778    2.4562    4.0898 C   0  0  0  0  0  4           0  0  0
    1.7079   -2.4956   -0.0149 C   0  0  0  0  0  4           0  0  0
    0.0000    0.0000    0.0000 C   0  0  0  0  0  4           0  0  0
    1.7822    2.5218   -0.0006 C   0  0  0  0  0  4           0  0  0
    2.5369    3.3949   -0.9983 C   0  0  0  0  0  4           0  0  0
    2.0472    4.8408   -1.0068 C   0  0  0  0  0  4           0  0  0
    2.7987    5.7133   -2.0012 C   0  0  0  0  0  4           0  0  0
  1  8  1  0     0  0
  2 23  2  0     0  0
  3 24  2  0     0  0
  4 23  1  0     0  0
  5 25  1  0     0  0
  6  9  1  0     0  0
  6 10  1  0     0  0
  6 26  1  0     0  0
  7  8  1  0     0  0
  7  9  2  0     0  0
  8 10  2  0     0  0
  9 27  1  0     0  0
 10 25  1  0     0  0
 11 12  1  0     0  0
 11 16  2  0     0  0
 11 23  1  0     0  0
 12 17  2  0     0  0
 12 24  1  0     0  0
 13 15  2  0     0  0
 13 18  1  0     0  0
 13 24  1  0     0  0
 14 15  1  0     0  0
 14 19  2  0     0  0
 14 26  1  0     0  0
 16 21  1  0     0  0
 17 22  1  0     0  0
 18 20  2  0     0  0
 19 20  1  0     0  0
 21 22  2  0     0  0
 27 28  1  0     0  0
 28 29  1  0     0  0
 29 30  1  0     0  0
M  END
> <standard_type>
pIC50

> <# Confs.>
25

> <canonical_smiles>
ClC(N=C1CCCC)=C(CO)N1CC2=CC=CC(C(C3=CC=CC=C3C(O)=O)=O)=C2

> <standard_relation>
=

> <Publication_ID>
nan

> <predicted_activity_value>
5.721246399047171

> <actual_activity_value>
6.468521082957745

> <Compound>
11

> <standard_units>
nM

> hash
16394989093989855569

$$$$
10
XXILIB    08252103503D 0   0.00000     0.00000

 30 32  0     1  0            999 V2000
    5.0277    1.4596   -0.0265 Cl  0  0  0  0  0  1           0  0  0
    1.1248   -4.8058    3.4273 O   0  0  0  0  0  2           0  0  0
   -1.5099   -2.5102    5.3045 O   0  0  0  0  0  2           0  0  0
   -0.0522   -5.4780    5.2463 O   0  0  0  0  0  2           0  0  0
    1.5405    2.8932    1.3688 O   0  0  0  0  0  2           0  0  0
    1.4530   -0.0000    0.0000 N   0  0  0  0  0  3           0  0  0
    3.5352   -0.7623   -0.0079 N   0  0  0  0  0  3           0  0  0
    3.5486    0.6094   -0.0071 C   0  0  0  0  0  4           0  0  0
    2.2669   -1.1146    0.0000 C   0  0  0  0  0  4           0  0  0
    2.2623    1.1246    0.0085 C   0  0  0  0  0  4           0  0  0
   -1.2392   -4.8475    3.2834 C   0  0  0  0  0  4           0  0  0
   -1.9647   -3.6451    3.2919 C   0  0  0  0  0  4           0  0  0
   -1.3167   -1.2101    3.3636 C   0  0  0  0  0  4           0  0  0
   -0.5412    0.0000    1.3970 C   0  0  0  0  0  4           0  0  0
   -0.7986   -1.2101    2.0617 C   0  0  0  0  0  4           0  0  0
   -1.7121   -5.9470    2.5562 C   0  0  0  0  0  4           0  0  0
   -3.1366   -3.5447    2.5294 C   0  0  0  0  0  4           0  0  0
   -1.5845    0.0065    4.0017 C   0  0  0  0  0  4           0  0  0
   -0.8212    1.2086    2.0476 C   0  0  0  0  0  4           0  0  0
   -1.3378    1.2106    3.3425 C   0  0  0  0  0  4           0  0  0
   -2.8883   -5.8403    1.8148 C   0  0  0  0  0  4           0  0  0
   -3.5946   -4.6395    1.7948 C   0  0  0  0  0  4           0  0  0
    0.0541   -5.0306    3.9728 C   0  0  0  0  0  4           0  0  0
   -1.5890   -2.4562    4.0854 C   0  0  0  0  0  4           0  0  0
    1.7079    2.4956    0.0149 C   0  0  0  0  0  4           0  0  0
    0.0000   -0.0000    0.0000 C   0  0  0  0  0  4           0  0  0
    1.7822   -2.5218    0.0006 C   0  0  0  0  0  4           0  0  0
    2.5361   -3.3955   -0.9971 C   0  0  0  0  0  4           0  0  0
    2.0464   -4.8414   -1.0045 C   0  0  0  0  0  4           0  0  0
    2.7972   -5.7145   -1.9990 C   0  0  0  0  0  4           0  0  0
  1  8  1  0     0  0
  2 23  2  0     0  0
  3 24  2  0     0  0
  4 23  1  0     0  0
  5 25  1  0     0  0
  6  9  1  0     0  0
  6 10  1  0     0  0
  6 26  1  0     0  0
  7  8  1  0     0  0
  7  9  2  0     0  0
  8 10  2  0     0  0
  9 27  1  0     0  0
 10 25  1  0     0  0
 11 12  1  0     0  0
 11 16  2  0     0  0
 11 23  1  0     0  0
 12 17  2  0     0  0
 12 24  1  0     0  0
 13 15  2  0     0  0
 13 18  1  0     0  0
 13 24  1  0     0  0
 14 15  1  0     0  0
 14 19  2  0     0  0
 14 26  1  0     0  0
 16 21  1  0     0  0
 17 22  1  0     0  0
 18 20  2  0     0  0
 19 20  1  0     0  0
 21 22  2  0     0  0
 27 28  1  0     0  0
 28 29  1  0     0  0
 29 30  1  0     0  0
M  END
> <standard_type>
pIC50

> <# Confs.>
25

> <canonical_smiles>
ClC(N=C1CCCC)=C(CO)N1CC2=CC=CC(C(C3=CC=CC=C3C(O)=O)=O)=C2

> <standard_relation>
=

> <Publication_ID>
nan

> <predicted_activity_value>
5.721246399047171

> <actual_activity_value>
6.468521082957745

> <Compound>
11

> <standard_units>
nM

> hash
16394989093989855569

$$$$
10
XXILIB    08252103503D 0   0.00000     0.00000

 30 32  0     1  0            999 V2000
    5.0277    1.4596   -0.0265 Cl  0  0  0  0  0  1           0  0  0
   -3.8187    3.1587    1.2963 O   0  0  0  0  0  2           0  0  0
   -2.0089    2.4422    5.2340 O   0  0  0  0  0  2           0  0  0
   -4.5779    4.1868    3.1705 O   0  0  0  0  0  2           0  0  0
    1.5405    2.8932    1.3688 O   0  0  0  0  0  2           0  0  0
    1.4530   -0.0000    0.0000 N   0  0  0  0  0  3           0  0  0
    3.5352   -0.7623   -0.0079 N   0  0  0  0  0  3           0  0  0
    3.5486    0.6094   -0.0071 C   0  0  0  0  0  4           0  0  0
    2.2669   -1.1146    0.0000 C   0  0  0  0  0  4           0  0  0
    2.2623    1.1246    0.0085 C   0  0  0  0  0  4           0  0  0
   -2.2782    4.3989    2.6000 C   0  0  0  0  0  4           0  0  0
   -1.3249    3.7307    3.3853 C   0  0  0  0  0  4           0  0  0
   -1.2928    1.2101    3.3729 C   0  0  0  0  0  4           0  0  0
   -0.5412   -0.0000    1.3970 C   0  0  0  0  0  4           0  0  0
   -0.7986    1.2101    2.0617 C   0  0  0  0  0  4           0  0  0
   -1.9710    5.6402    2.0290 C   0  0  0  0  0  4           0  0  0
   -0.0529    4.2961    3.5505 C   0  0  0  0  0  4           0  0  0
   -1.5247   -0.0065    4.0249 C   0  0  0  0  0  4           0  0  0
   -0.7724   -1.2086    2.0665 C   0  0  0  0  0  4           0  0  0
   -1.2630   -1.2106    3.3715 C   0  0  0  0  0  4           0  0  0
   -0.7077    6.2008    2.2142 C   0  0  0  0  0  4           0  0  0
    0.2520    5.5264    2.9664 C   0  0  0  0  0  4           0  0  0
   -3.6120    3.8491    2.2838 C   0  0  0  0  0  4           0  0  0
   -1.5778    2.4562    4.0898 C   0  0  0  0  0  4           0  0  0
    1.7079    2.4956    0.0149 C   0  0  0  0  0  4           0  0  0
    0.0000    0.0000    0.0000 C   0  0  0  0  0  4           0  0  0
    1.7822   -2.5218    0.0006 C   0  0  0  0  0  4           0  0  0
    2.5369   -3.3949    0.9983 C   0  0  0  0  0  4           0  0  0
    2.0472   -4.8408    1.0068 C   0  0  0  0  0  4           0  0  0
    2.7987   -5.7133    2.0012 C   0  0  0  0  0  4           0  0  0
  1  8  1  0     0  0
  2 23  2  0     0  0
  3 24  2  0     0  0
  4 23  1  0     0  0
  5 25  1  0     0  0
  6  9  1  0     0  0
  6 10  1  0     0  0
  6 26  1  0     0  0
  7  8  1  0     0  0
  7  9  2  0     0  0
  8 10  2  0     0  0
  9 27  1  0     0  0
 10 25  1  0     0  0
 11 12  1  0     0  0
 11 16  2  0     0  0
 11 23  1  0     0  0
 12 17  2  0     0  0
 12 24  1  0     0  0
 13 15  2  0     0  0
 13 18  1  0     0  0
 13 24  1  0     0  0
 14 15  1  0     0  0
 14 19  2  0     0  0
 14 26  1  0     0  0
 16 21  1  0     0  0
 17 22  1  0     0  0
 18 20  2  0     0  0
 19 20  1  0     0  0
 21 22  2  0     0  0
 27 28  1  0     0  0
 28 29  1  0     0  0
 29 30  1  0     0  0
M  END
> <standard_type>
pIC50

> <# Confs.>
25

> <canonical_smiles>
ClC(N=C1CCCC)=C(CO)N1CC2=CC=CC(C(C3=CC=CC=C3C(O)=O)=O)=C2

> <standard_relation>
=

> <Publication_ID>
nan

> <predicted_activity_value>
5.721246399047171

> <actual_activity_value>
6.468521082957745

> <Compound>
11

> <standard_units>
nM

> hash
16394989093989855569

$$$$
10
XXILIB    08252103503D 0   0.00000     0.00000

 30 32  0     1  0            999 V2000
    5.0277    1.4596   -0.0265 Cl  0  0  0  0  0  1           0  0  0
    0.1630   -4.8001    3.7852 O   0  0  0  0  0  2           0  0  0
   -0.6727   -2.1642    5.6186 O   0  0  0  0  0  2           0  0  0
    1.3767   -5.4603    5.5845 O   0  0  0  0  0  2           0  0  0
    1.5405    2.8932    1.3688 O   0  0  0  0  0  2           0  0  0
    1.4530   -0.0000    0.0000 N   0  0  0  0  0  3           0  0  0
    3.5352   -0.7623   -0.0079 N   0  0  0  0  0  3           0  0  0
    3.5486    0.6094   -0.0071 C   0  0  0  0  0  4           0  0  0
    2.2669   -1.1146    0.0000 C   0  0  0  0  0  4           0  0  0
    2.2623    1.1246    0.0085 C   0  0  0  0  0  4           0  0  0
    1.9413   -3.4138    4.5111 C   0  0  0  0  0  4           0  0  0
    1.4639   -2.0986    4.6306 C   0  0  0  0  0  4           0  0  0
   -0.5153   -0.8647    3.6741 C   0  0  0  0  0  4           0  0  0
   -0.5412    0.0000    1.3970 C   0  0  0  0  0  4           0  0  0
   -0.0007   -0.8557    2.3708 C   0  0  0  0  0  4           0  0  0
    3.3138   -3.6514    4.3656 C   0  0  0  0  0  4           0  0  0
    2.3773   -1.0355    4.6499 C   0  0  0  0  0  4           0  0  0
   -1.5800   -0.0181    4.0034 C   0  0  0  0  0  4           0  0  0
   -1.6110    0.8361    1.7417 C   0  0  0  0  0  4           0  0  0
   -2.1250    0.8277    3.0376 C   0  0  0  0  0  4           0  0  0
    4.2116   -2.5844    4.3695 C   0  0  0  0  0  4           0  0  0
    3.7452   -1.2800    4.5195 C   0  0  0  0  0  4           0  0  0
    1.0769   -4.6096    4.5747 C   0  0  0  0  0  4           0  0  0
    0.0322   -1.7410    4.7134 C   0  0  0  0  0  4           0  0  0
    1.7079    2.4956    0.0149 C   0  0  0  0  0  4           0  0  0
    0.0000    0.0000    0.0000 C   0  0  0  0  0  4           0  0  0
    1.7822   -2.5218    0.0006 C   0  0  0  0  0  4           0  0  0
    2.5361   -3.3955   -0.9971 C   0  0  0  0  0  4           0  0  0
    2.4037   -2.8997   -2.4349 C   0  0  0  0  0  4           0  0  0
    3.1550   -3.7699   -3.4315 C   0  0  0  0  0  4           0  0  0
  1  8  1  0     0  0
  2 23  2  0     0  0
  3 24  2  0     0  0
  4 23  1  0     0  0
  5 25  1  0     0  0
  6  9  1  0     0  0
  6 10  1  0     0  0
  6 26  1  0     0  0
  7  8  1  0     0  0
  7  9  2  0     0  0
  8 10  2  0     0  0
  9 27  1  0     0  0
 10 25  1  0     0  0
 11 12  1  0     0  0
 11 16  2  0     0  0
 11 23  1  0     0  0
 12 17  2  0     0  0
 12 24  1  0     0  0
 13 15  2  0     0  0
 13 18  1  0     0  0
 13 24  1  0     0  0
 14 15  1  0     0  0
 14 19  2  0     0  0
 14 26  1  0     0  0
 16 21  1  0     0  0
 17 22  1  0     0  0
 18 20  2  0     0  0
 19 20  1  0     0  0
 21 22  2  0     0  0
 27 28  1  0     0  0
 28 29  1  0     0  0
 29 30  1  0     0  0
M  END
> <standard_type>
pIC50

> <# Confs.>
25

> <canonical_smiles>
ClC(N=C1CCCC)=C(CO)N1CC2=CC=CC(C(C3=CC=CC=C3C(O)=O)=O)=C2

> <standard_relation>
=

> <Publication_ID>
nan

> <predicted_activity_value>
5.721246399047171

> <actual_activity_value>
6.468521082957745

> <Compound>
11

> <standard_units>
nM

> hash
16394989093989855569

$$$$
10
XXILIB    08252103503D 0   0.00000     0.00000

 30 32  0     1  0            999 V2000
    5.0277   -1.4596    0.0265 Cl  0  0  0  0  0  1           0  0  0
    0.1630   -4.8001    3.7852 O   0  0  0  0  0  2           0  0  0
   -0.6727   -2.1642    5.6186 O   0  0  0  0  0  2           0  0  0
    1.3767   -5.4603    5.5845 O   0  0  0  0  0  2           0  0  0
    1.5405   -2.8932   -1.3688 O   0  0  0  0  0  2           0  0  0
    1.4530    0.0000    0.0000 N   0  0  0  0  0  3           0  0  0
    3.5352    0.7623    0.0079 N   0  0  0  0  0  3           0  0  0
    3.5486   -0.6094    0.0071 C   0  0  0  0  0  4           0  0  0
    2.2669    1.1146    0.0000 C   0  0  0  0  0  4           0  0  0
    2.2623   -1.1246   -0.0085 C   0  0  0  0  0  4           0  0  0
    1.9413   -3.4138    4.5111 C   0  0  0  0  0  4           0  0  0
    1.4639   -2.0986    4.6306 C   0  0  0  0  0  4           0  0  0
   -0.5153   -0.8647    3.6741 C   0  0  0  0  0  4           0  0  0
   -0.5412    0.0000    1.3970 C   0  0  0  0  0  4           0  0  0
   -0.0007   -0.8557    2.3708 C   0  0  0  0  0  4           0  0  0
    3.3138   -3.6514    4.3656 C   0  0  0  0  0  4           0  0  0
    2.3773   -1.0355    4.6499 C   0  0  0  0  0  4           0  0  0
   -1.5800   -0.0181    4.0034 C   0  0  0  0  0  4           0  0  0
   -1.6110    0.8361    1.7417 C   0  0  0  0  0  4           0  0  0
   -2.1250    0.8277    3.0376 C   0  0  0  0  0  4           0  0  0
    4.2116   -2.5844    4.3695 C   0  0  0  0  0  4           0  0  0
    3.7452   -1.2800    4.5195 C   0  0  0  0  0  4           0  0  0
    1.0769   -4.6096    4.5747 C   0  0  0  0  0  4           0  0  0
    0.0322   -1.7410    4.7134 C   0  0  0  0  0  4           0  0  0
    1.7079   -2.4956   -0.0149 C   0  0  0  0  0  4           0  0  0
    0.0000    0.0000    0.0000 C   0  0  0  0  0  4           0  0  0
    1.7822    2.5218   -0.0006 C   0  0  0  0  0  4           0  0  0
    2.9272    3.5298   -0.0004 C   0  0  0  0  0  4           0  0  0
    2.4406    4.9768   -0.0011 C   0  0  0  0  0  4           0  0  0
    3.5812    5.9837   -0.0009 C   0  0  0  0  0  4           0  0  0
  1  8  1  0     0  0
  2 23  2  0     0  0
  3 24  2  0     0  0
  4 23  1  0     0  0
  5 25  1  0     0  0
  6  9  1  0     0  0
  6 10  1  0     0  0
  6 26  1  0     0  0
  7  8  1  0     0  0
  7  9  2  0     0  0
  8 10  2  0     0  0
  9 27  1  0     0  0
 10 25  1  0     0  0
 11 12  1  0     0  0
 11 16  2  0     0  0
 11 23  1  0     0  0
 12 17  2  0     0  0
 12 24  1  0     0  0
 13 15  2  0     0  0
 13 18  1  0     0  0
 13 24  1  0     0  0
 14 15  1  0     0  0
 14 19  2  0     0  0
 14 26  1  0     0  0
 16 21  1  0     0  0
 17 22  1  0     0  0
 18 20  2  0     0  0
 19 20  1  0     0  0
 21 22  2  0     0  0
 27 28  1  0     0  0
 28 29  1  0     0  0
 29 30  1  0     0  0
M  END
> <standard_type>
pIC50

> <# Confs.>
25

> <canonical_smiles>
ClC(N=C1CCCC)=C(CO)N1CC2=CC=CC(C(C3=CC=CC=C3C(O)=O)=O)=C2

> <standard_relation>
=

> <Publication_ID>
nan

> <predicted_activity_value>
5.721246399047171

> <actual_activity_value>
6.468521082957745

> <Compound>
11

> <standard_units>
nM

> hash
16394989093989855569

$$$$
10
XXILIB    08252103503D 0   0.00000     0.00000

 30 32  0     1  0            999 V2000
    5.0277   -1.4596    0.0265 Cl  0  0  0  0  0  1           0  0  0
   -3.1401    4.8058    1.7752 O   0  0  0  0  0  2           0  0  0
   -2.4575    2.5102    4.9374 O   0  0  0  0  0  2           0  0  0
   -3.4955    5.4780    3.9125 O   0  0  0  0  0  2           0  0  0
    2.4278   -3.2538   -0.9771 O   0  0  0  0  0  2           0  0  0
    1.4530    0.0000    0.0000 N   0  0  0  0  0  3           0  0  0
    3.5352    0.7623    0.0079 N   0  0  0  0  0  3           0  0  0
    3.5486   -0.6094    0.0071 C   0  0  0  0  0  4           0  0  0
    2.2669    1.1146   -0.0000 C   0  0  0  0  0  4           0  0  0
    2.2623   -1.1246   -0.0085 C   0  0  0  0  0  4           0  0  0
   -1.2960    4.8475    3.2614 C   0  0  0  0  0  4           0  0  0
   -0.7656    3.6451    3.7564 C   0  0  0  0  0  4           0  0  0
   -1.2928    1.2101    3.3729 C   0  0  0  0  0  4           0  0  0
   -0.5412    0.0000    1.3970 C   0  0  0  0  0  4           0  0  0
   -0.7986    1.2101    2.0617 C   0  0  0  0  0  4           0  0  0
   -0.4566    5.9470    3.0425 C   0  0  0  0  0  4           0  0  0
    0.6142    3.5447    3.9823 C   0  0  0  0  0  4           0  0  0
   -1.5247   -0.0065    4.0249 C   0  0  0  0  0  4           0  0  0
   -0.7724   -1.2086    2.0665 C   0  0  0  0  0  4           0  0  0
   -1.2630   -1.2106    3.3715 C   0  0  0  0  0  4           0  0  0
    0.9121    5.8403    3.2869 C   0  0  0  0  0  4           0  0  0
    1.4476    4.6395    3.7480 C   0  0  0  0  0  4           0  0  0
   -2.7162    5.0306    2.8997 C   0  0  0  0  0  4           0  0  0
   -1.5778    2.4562    4.0898 C   0  0  0  0  0  4           0  0  0
    1.7079   -2.4956   -0.0149 C   0  0  0  0  0  4           0  0  0
    0.0000    0.0000    0.0000 C   0  0  0  0  0  4           0  0  0
    1.7822    2.5218   -0.0006 C   0  0  0  0  0  4           0  0  0
    2.5369    3.3949   -0.9983 C   0  0  0  0  0  4           0  0  0
    2.4056    2.8983   -2.4358 C   0  0  0  0  0  4           0  0  0
    3.1577    3.7679   -3.4323 C   0  0  0  0  0  4           0  0  0
  1  8  1  0     0  0
  2 23  2  0     0  0
  3 24  2  0     0  0
  4 23  1  0     0  0
  5 25  1  0     0  0
  6  9  1  0     0  0
  6 10  1  0     0  0
  6 26  1  0     0  0
  7  8  1  0     0  0
  7  9  2  0     0  0
  8 10  2  0     0  0
  9 27  1  0     0  0
 10 25  1  0     0  0
 11 12  1  0     0  0
 11 16  2  0     0  0
 11 23  1  0     0  0
 12 17  2  0     0  0
 12 24  1  0     0  0
 13 15  2  0     0  0
 13 18  1  0     0  0
 13 24  1  0     0  0
 14 15  1  0     0  0
 14 19  2  0     0  0
 14 26  1  0     0  0
 16 21  1  0     0  0
 17 22  1  0     0  0
 18 20  2  0     0  0
 19 20  1  0     0  0
 21 22  2  0     0  0
 27 28  1  0     0  0
 28 29  1  0     0  0
 29 30  1  0     0  0
M  END
> <standard_type>
pIC50

> <# Confs.>
25

> <canonical_smiles>
ClC(N=C1CCCC)=C(CO)N1CC2=CC=CC(C(C3=CC=CC=C3C(O)=O)=O)=C2

> <standard_relation>
=

> <Publication_ID>
nan

> <predicted_activity_value>
5.721246399047171

> <actual_activity_value>
6.468521082957745

> <Compound>
11

> <standard_units>
nM

> hash
16394989093989855569

$$$$
10
XXILIB    08252103503D 0   0.00000     0.00000

 30 32  0     1  0            999 V2000
    5.0277   -1.4596    0.0265 Cl  0  0  0  0  0  1           0  0  0
    0.1630   -4.8001    3.7852 O   0  0  0  0  0  2           0  0  0
   -0.6727   -2.1642    5.6186 O   0  0  0  0  0  2           0  0  0
    1.3767   -5.4603    5.5845 O   0  0  0  0  0  2           0  0  0
    1.5405   -2.8932   -1.3688 O   0  0  0  0  0  2           0  0  0
    1.4530    0.0000    0.0000 N   0  0  0  0  0  3           0  0  0
    3.5352    0.7623    0.0079 N   0  0  0  0  0  3           0  0  0
    3.5486   -0.6094    0.0071 C   0  0  0  0  0  4           0  0  0
    2.2669    1.1146    0.0000 C   0  0  0  0  0  4           0  0  0
    2.2623   -1.1246   -0.0085 C   0  0  0  0  0  4           0  0  0
    1.9413   -3.4138    4.5111 C   0  0  0  0  0  4           0  0  0
    1.4639   -2.0986    4.6306 C   0  0  0  0  0  4           0  0  0
   -0.5153   -0.8647    3.6741 C   0  0  0  0  0  4           0  0  0
   -0.5412    0.0000    1.3970 C   0  0  0  0  0  4           0  0  0
   -0.0007   -0.8557    2.3708 C   0  0  0  0  0  4           0  0  0
    3.3138   -3.6514    4.3656 C   0  0  0  0  0  4           0  0  0
    2.3773   -1.0355    4.6499 C   0  0  0  0  0  4           0  0  0
   -1.5800   -0.0181    4.0034 C   0  0  0  0  0  4           0  0  0
   -1.6110    0.8361    1.7417 C   0  0  0  0  0  4           0  0  0
   -2.1250    0.8277    3.0376 C   0  0  0  0  0  4           0  0  0
    4.2116   -2.5844    4.3695 C   0  0  0  0  0  4           0  0  0
    3.7452   -1.2800    4.5195 C   0  0  0  0  0  4           0  0  0
    1.0769   -4.6096    4.5747 C   0  0  0  0  0  4           0  0  0
    0.0322   -1.7410    4.7134 C   0  0  0  0  0  4           0  0  0
    1.7079   -2.4956   -0.0149 C   0  0  0  0  0  4           0  0  0
    0.0000    0.0000    0.0000 C   0  0  0  0  0  4           0  0  0
    1.7822    2.5218   -0.0006 C   0  0  0  0  0  4           0  0  0
    1.5938    3.0699   -1.4118 C   0  0  0  0  0  4           0  0  0
    2.8854    3.0637   -2.2254 C   0  0  0  0  0  4           0  0  0
    2.6996    3.6100   -3.6332 C   0  0  0  0  0  4           0  0  0
  1  8  1  0     0  0
  2 23  2  0     0  0
  3 24  2  0     0  0
  4 23  1  0     0  0
  5 25  1  0     0  0
  6  9  1  0     0  0
  6 10  1  0     0  0
  6 26  1  0     0  0
  7  8  1  0     0  0
  7  9  2  0     0  0
  8 10  2  0     0  0
  9 27  1  0     0  0
 10 25  1  0     0  0
 11 12  1  0     0  0
 11 16  2  0     0  0
 11 23  1  0     0  0
 12 17  2  0     0  0
 12 24  1  0     0  0
 13 15  2  0     0  0
 13 18  1  0     0  0
 13 24  1  0     0  0
 14 15  1  0     0  0
 14 19  2  0     0  0
 14 26  1  0     0  0
 16 21  1  0     0  0
 17 22  1  0     0  0
 18 20  2  0     0  0
 19 20  1  0     0  0
 21 22  2  0     0  0
 27 28  1  0     0  0
 28 29  1  0     0  0
 29 30  1  0     0  0
M  END
> <standard_type>
pIC50

> <# Confs.>
25

> <canonical_smiles>
ClC(N=C1CCCC)=C(CO)N1CC2=CC=CC(C(C3=CC=CC=C3C(O)=O)=O)=C2

> <standard_relation>
=

> <Publication_ID>
nan

> <predicted_activity_value>
5.721246399047171

> <actual_activity_value>
6.468521082957745

> <Compound>
11

> <standard_units>
nM

> hash
16394989093989855569

$$$$
11
XXILIB    08252103503D 0   0.00000     0.00000

 29 31  0     1  0            999 V2000
    5.0124    1.4761   -0.0112 Cl  0  0  0  0  0  1           0  0  0
   -1.5523   -2.3881    4.0035 O   0  0  0  0  0  2           0  0  0
   -2.6786   -4.2800    1.9328 O   0  0  0  0  0  2           0  0  0
   -2.6389   -5.9428    3.5157 O   0  0  0  0  0  2           0  0  0
    0.7468    2.6048   -0.9349 O   0  0  0  0  0  2           0  0  0
    1.4518   -0.0000    0.0000 N   0  0  0  0  0  3           0  0  0
    3.5350   -0.7729   -0.0069 N   0  0  0  0  0  3           0  0  0
    3.5513    0.5972   -0.0012 C   0  0  0  0  0  4           0  0  0
   -0.5524   -3.3293    3.9486 C   0  0  0  0  0  4           0  0  0
   -1.3349   -1.1953    3.3504 C   0  0  0  0  0  4           0  0  0
    2.2633   -1.1181   -0.0000 C   0  0  0  0  0  4           0  0  0
    2.2688    1.1136    0.0114 C   0  0  0  0  0  4           0  0  0
   -0.8183   -4.5851    3.3797 C   0  0  0  0  0  4           0  0  0
   -0.5421    0.0000    1.3968 C   0  0  0  0  0  4           0  0  0
   -0.7994   -1.2075    2.0598 C   0  0  0  0  0  4           0  0  0
    0.7069   -3.0660    4.5049 C   0  0  0  0  0  4           0  0  0
   -1.5914    0.0087    4.0065 C   0  0  0  0  0  4           0  0  0
    0.1916   -5.5572    3.3515 C   0  0  0  0  0  4           0  0  0
   -0.8253    1.2085    2.0512 C   0  0  0  0  0  4           0  0  0
   -1.3411    1.2112    3.3497 C   0  0  0  0  0  4           0  0  0
    1.7063   -4.0374    4.4653 C   0  0  0  0  0  4           0  0  0
    1.4499   -5.2790    3.8880 C   0  0  0  0  0  4           0  0  0
   -2.1388   -4.8881    2.8380 C   0  0  0  0  0  4           0  0  0
    1.7894    2.5112    0.0246 C   0  0  0  0  0  4           0  0  0
    0.0000    0.0000   -0.0000 C   0  0  0  0  0  4           0  0  0
    1.7676   -2.5213   -0.0019 C   0  0  0  0  0  4           0  0  0
    2.5159   -3.4005   -0.9993 C   0  0  0  0  0  4           0  0  0
    1.9885   -4.8320   -0.9807 C   0  0  0  0  0  4           0  0  0
    2.7314   -5.7120   -1.9734 C   0  0  0  0  0  4           0  0  0
  1  8  1  0     0  0
  2  9  1  0     0  0
  2 10  1  0     0  0
  3 23  2  0     0  0
  4 23  1  0     0  0
  5 24  1  0     0  0
  6 11  1  0     0  0
  6 12  1  0     0  0
  6 25  1  0     0  0
  7  8  1  0     0  0
  7 11  2  0     0  0
  8 12  2  0     0  0
  9 13  1  0     0  0
  9 16  2  0     0  0
 10 15  2  0     0  0
 10 17  1  0     0  0
 11 26  1  0     0  0
 12 24  1  0     0  0
 13 18  2  0     0  0
 13 23  1  0     0  0
 14 15  1  0     0  0
 14 19  2  0     0  0
 14 25  1  0     0  0
 16 21  1  0     0  0
 17 20  2  0     0  0
 18 22  1  0     0  0
 19 20  1  0     0  0
 21 22  2  0     0  0
 26 27  1  0     0  0
 27 28  1  0     0  0
 28 29  1  0     0  0
M  END
> <standard_type>
pIC50

> <# Confs.>
25

> <canonical_smiles>
ClC(N=C1CCCC)=C(CO)N1CC2=CC=CC(OC3=CC=CC=C3C(O)=O)=C2

> <standard_relation>
=

> <Publication_ID>
nan

> <predicted_activity_value>
7.3979400086720375

> <actual_activity_value>
6.3979400086720375

> <Compound>
12

> <standard_units>
nM

> hash
1572487227986651878

$$$$
11
XXILIB    08252103503D 0   0.00000     0.00000

 29 31  0     1  0            999 V2000
    5.0124   -1.4761    0.0112 Cl  0  0  0  0  0  1           0  0  0
   -1.5549    2.3881    4.0025 O   0  0  0  0  0  2           0  0  0
   -2.9438    4.1322    1.9728 O   0  0  0  0  0  2           0  0  0
   -2.9167    5.8553    3.4901 O   0  0  0  0  0  2           0  0  0
    0.7454   -2.5862   -0.9841 O   0  0  0  0  0  2           0  0  0
    1.4518   -0.0000   -0.0000 N   0  0  0  0  0  3           0  0  0
    3.5350    0.7729    0.0069 N   0  0  0  0  0  3           0  0  0
    3.5513   -0.5972    0.0012 C   0  0  0  0  0  4           0  0  0
   -0.6342    3.4004    3.8749 C   0  0  0  0  0  4           0  0  0
   -1.2748    1.1953    3.3737 C   0  0  0  0  0  4           0  0  0
    2.2633    1.1181    0.0000 C   0  0  0  0  0  4           0  0  0
    2.2688   -1.1136   -0.0114 C   0  0  0  0  0  4           0  0  0
   -1.0213    4.6137    3.2840 C   0  0  0  0  0  4           0  0  0
   -0.5421    0.0000    1.3968 C   0  0  0  0  0  4           0  0  0
   -0.7994    1.2075    2.0598 C   0  0  0  0  0  4           0  0  0
    0.6954    3.2106    4.2760 C   0  0  0  0  0  4           0  0  0
   -1.5280   -0.0087    4.0311 C   0  0  0  0  0  4           0  0  0
   -0.0749    5.6360    3.1244 C   0  0  0  0  0  4           0  0  0
   -0.7745   -1.2085    2.0709 C   0  0  0  0  0  4           0  0  0
   -1.2697   -1.2112    3.3774 C   0  0  0  0  0  4           0  0  0
    1.6267    4.2362    4.1192 C   0  0  0  0  0  4           0  0  0
    1.2419    5.4466    3.5469 C   0  0  0  0  0  4           0  0  0
   -2.3911    4.8079    2.8203 C   0  0  0  0  0  4           0  0  0
    1.7894   -2.5112   -0.0246 C   0  0  0  0  0  4           0  0  0
    0.0000    0.0000    0.0000 C   0  0  0  0  0  4           0  0  0
    1.7676    2.5213    0.0019 C   0  0  0  0  0  4           0  0  0
    2.5135    3.4023   -0.9959 C   0  0  0  0  0  4           0  0  0
    1.9861    4.8337   -0.9734 C   0  0  0  0  0  4           0  0  0
    2.7266    5.7155   -1.9663 C   0  0  0  0  0  4           0  0  0
  1  8  1  0     0  0
  2  9  1  0     0  0
  2 10  1  0     0  0
  3 23  2  0     0  0
  4 23  1  0     0  0
  5 24  1  0     0  0
  6 11  1  0     0  0
  6 12  1  0     0  0
  6 25  1  0     0  0
  7  8  1  0     0  0
  7 11  2  0     0  0
  8 12  2  0     0  0
  9 13  1  0     0  0
  9 16  2  0     0  0
 10 15  2  0     0  0
 10 17  1  0     0  0
 11 26  1  0     0  0
 12 24  1  0     0  0
 13 18  2  0     0  0
 13 23  1  0     0  0
 14 15  1  0     0  0
 14 19  2  0     0  0
 14 25  1  0     0  0
 16 21  1  0     0  0
 17 20  2  0     0  0
 18 22  1  0     0  0
 19 20  1  0     0  0
 21 22  2  0     0  0
 26 27  1  0     0  0
 27 28  1  0     0  0
 28 29  1  0     0  0
M  END
> <standard_type>
pIC50

> <# Confs.>
25

> <canonical_smiles>
ClC(N=C1CCCC)=C(CO)N1CC2=CC=CC(OC3=CC=CC=C3C(O)=O)=C2

> <standard_relation>
=

> <Publication_ID>
nan

> <predicted_activity_value>
7.3979400086720375

> <actual_activity_value>
6.3979400086720375

> <Compound>
12

> <standard_units>
nM

> hash
1572487227986651878

$$$$
11
XXILIB    08252103503D 0   0.00000     0.00000

 29 31  0     1  0            999 V2000
    5.0124   -1.4761    0.0112 Cl  0  0  0  0  0  1           0  0  0
   -1.5523   -2.3881    4.0035 O   0  0  0  0  0  2           0  0  0
   -2.6786   -4.2800    1.9328 O   0  0  0  0  0  2           0  0  0
   -2.6389   -5.9428    3.5157 O   0  0  0  0  0  2           0  0  0
    0.7454   -2.5862   -0.9841 O   0  0  0  0  0  2           0  0  0
    1.4518   -0.0000   -0.0000 N   0  0  0  0  0  3           0  0  0
    3.5350    0.7729    0.0069 N   0  0  0  0  0  3           0  0  0
    3.5513   -0.5972    0.0012 C   0  0  0  0  0  4           0  0  0
   -0.5524   -3.3293    3.9486 C   0  0  0  0  0  4           0  0  0
   -1.3349   -1.1953    3.3504 C   0  0  0  0  0  4           0  0  0
    2.2633    1.1181    0.0000 C   0  0  0  0  0  4           0  0  0
    2.2688   -1.1136   -0.0114 C   0  0  0  0  0  4           0  0  0
   -0.8183   -4.5851    3.3797 C   0  0  0  0  0  4           0  0  0
   -0.5421    0.0000    1.3968 C   0  0  0  0  0  4           0  0  0
   -0.7994   -1.2075    2.0598 C   0  0  0  0  0  4           0  0  0
    0.7069   -3.0660    4.5049 C   0  0  0  0  0  4           0  0  0
   -1.5914    0.0087    4.0065 C   0  0  0  0  0  4           0  0  0
    0.1916   -5.5572    3.3515 C   0  0  0  0  0  4           0  0  0
   -0.8253    1.2085    2.0512 C   0  0  0  0  0  4           0  0  0
   -1.3411    1.2112    3.3497 C   0  0  0  0  0  4           0  0  0
    1.7063   -4.0374    4.4653 C   0  0  0  0  0  4           0  0  0
    1.4499   -5.2790    3.8880 C   0  0  0  0  0  4           0  0  0
   -2.1388   -4.8881    2.8380 C   0  0  0  0  0  4           0  0  0
    1.7894   -2.5112   -0.0246 C   0  0  0  0  0  4           0  0  0
    0.0000    0.0000   -0.0000 C   0  0  0  0  0  4           0  0  0
    1.7676    2.5213    0.0019 C   0  0  0  0  0  4           0  0  0
    2.5135    3.4023   -0.9959 C   0  0  0  0  0  4           0  0  0
    1.9861    4.8337   -0.9734 C   0  0  0  0  0  4           0  0  0
    2.7266    5.7155   -1.9663 C   0  0  0  0  0  4           0  0  0
  1  8  1  0     0  0
  2  9  1  0     0  0
  2 10  1  0     0  0
  3 23  2  0     0  0
  4 23  1  0     0  0
  5 24  1  0     0  0
  6 11  1  0     0  0
  6 12  1  0     0  0
  6 25  1  0     0  0
  7  8  1  0     0  0
  7 11  2  0     0  0
  8 12  2  0     0  0
  9 13  1  0     0  0
  9 16  2  0     0  0
 10 15  2  0     0  0
 10 17  1  0     0  0
 11 26  1  0     0  0
 12 24  1  0     0  0
 13 18  2  0     0  0
 13 23  1  0     0  0
 14 15  1  0     0  0
 14 19  2  0     0  0
 14 25  1  0     0  0
 16 21  1  0     0  0
 17 20  2  0     0  0
 18 22  1  0     0  0
 19 20  1  0     0  0
 21 22  2  0     0  0
 26 27  1  0     0  0
 27 28  1  0     0  0
 28 29  1  0     0  0
M  END
> <standard_type>
pIC50

> <# Confs.>
25

> <canonical_smiles>
ClC(N=C1CCCC)=C(CO)N1CC2=CC=CC(OC3=CC=CC=C3C(O)=O)=C2

> <standard_relation>
=

> <Publication_ID>
nan

> <predicted_activity_value>
7.3979400086720375

> <actual_activity_value>
6.3979400086720375

> <Compound>
12

> <standard_units>
nM

> hash
1572487227986651878

$$$$
11
XXILIB    08252103503D 0   0.00000     0.00000

 29 31  0     1  0            999 V2000
    5.0124    1.4761   -0.0112 Cl  0  0  0  0  0  1           0  0  0
   -1.5549    2.3881    4.0025 O   0  0  0  0  0  2           0  0  0
   -2.9438    4.1322    1.9728 O   0  0  0  0  0  2           0  0  0
   -2.9167    5.8553    3.4901 O   0  0  0  0  0  2           0  0  0
    0.7468    2.6048   -0.9349 O   0  0  0  0  0  2           0  0  0
    1.4518   -0.0000    0.0000 N   0  0  0  0  0  3           0  0  0
    3.5350   -0.7729   -0.0069 N   0  0  0  0  0  3           0  0  0
    3.5513    0.5972   -0.0012 C   0  0  0  0  0  4           0  0  0
   -0.6342    3.4004    3.8749 C   0  0  0  0  0  4           0  0  0
   -1.2748    1.1953    3.3737 C   0  0  0  0  0  4           0  0  0
    2.2633   -1.1181   -0.0000 C   0  0  0  0  0  4           0  0  0
    2.2688    1.1136    0.0114 C   0  0  0  0  0  4           0  0  0
   -1.0213    4.6137    3.2840 C   0  0  0  0  0  4           0  0  0
   -0.5421    0.0000    1.3968 C   0  0  0  0  0  4           0  0  0
   -0.7994    1.2075    2.0598 C   0  0  0  0  0  4           0  0  0
    0.6954    3.2106    4.2760 C   0  0  0  0  0  4           0  0  0
   -1.5280   -0.0087    4.0311 C   0  0  0  0  0  4           0  0  0
   -0.0749    5.6360    3.1244 C   0  0  0  0  0  4           0  0  0
   -0.7745   -1.2085    2.0709 C   0  0  0  0  0  4           0  0  0
   -1.2697   -1.2112    3.3774 C   0  0  0  0  0  4           0  0  0
    1.6267    4.2362    4.1192 C   0  0  0  0  0  4           0  0  0
    1.2419    5.4466    3.5469 C   0  0  0  0  0  4           0  0  0
   -2.3911    4.8079    2.8203 C   0  0  0  0  0  4           0  0  0
    1.7894    2.5112    0.0246 C   0  0  0  0  0  4           0  0  0
    0.0000    0.0000    0.0000 C   0  0  0  0  0  4           0  0  0
    1.7676   -2.5213   -0.0019 C   0  0  0  0  0  4           0  0  0
    2.5159   -3.4005   -0.9993 C   0  0  0  0  0  4           0  0  0
    1.9885   -4.8320   -0.9807 C   0  0  0  0  0  4           0  0  0
    2.7314   -5.7120   -1.9734 C   0  0  0  0  0  4           0  0  0
  1  8  1  0     0  0
  2  9  1  0     0  0
  2 10  1  0     0  0
  3 23  2  0     0  0
  4 23  1  0     0  0
  5 24  1  0     0  0
  6 11  1  0     0  0
  6 12  1  0     0  0
  6 25  1  0     0  0
  7  8  1  0     0  0
  7 11  2  0     0  0
  8 12  2  0     0  0
  9 13  1  0     0  0
  9 16  2  0     0  0
 10 15  2  0     0  0
 10 17  1  0     0  0
 11 26  1  0     0  0
 12 24  1  0     0  0
 13 18  2  0     0  0
 13 23  1  0     0  0
 14 15  1  0     0  0
 14 19  2  0     0  0
 14 25  1  0     0  0
 16 21  1  0     0  0
 17 20  2  0     0  0
 18 22  1  0     0  0
 19 20  1  0     0  0
 21 22  2  0     0  0
 26 27  1  0     0  0
 27 28  1  0     0  0
 28 29  1  0     0  0
M  END
> <standard_type>
pIC50

> <# Confs.>
25

> <canonical_smiles>
ClC(N=C1CCCC)=C(CO)N1CC2=CC=CC(OC3=CC=CC=C3C(O)=O)=C2

> <standard_relation>
=

> <Publication_ID>
nan

> <predicted_activity_value>
7.3979400086720375

> <actual_activity_value>
6.3979400086720375

> <Compound>
12

> <standard_units>
nM

> hash
1572487227986651878

$$$$
11
XXILIB    08252103503D 0   0.00000     0.00000

 29 31  0     1  0            999 V2000
    5.0124   -1.4761    0.0112 Cl  0  0  0  0  0  1           0  0  0
   -1.5549    2.3881    4.0025 O   0  0  0  0  0  2           0  0  0
   -3.3816    4.7482    3.5244 O   0  0  0  0  0  2           0  0  0
   -2.3544    5.0572    1.4943 O   0  0  0  0  0  2           0  0  0
    0.7454   -2.5862   -0.9841 O   0  0  0  0  0  2           0  0  0
    1.4518   -0.0000   -0.0000 N   0  0  0  0  0  3           0  0  0
    3.5350    0.7729    0.0069 N   0  0  0  0  0  3           0  0  0
    3.5513   -0.5972    0.0012 C   0  0  0  0  0  4           0  0  0
   -0.6342    3.4004    3.8749 C   0  0  0  0  0  4           0  0  0
   -1.2748    1.1953    3.3737 C   0  0  0  0  0  4           0  0  0
    2.2633    1.1181    0.0000 C   0  0  0  0  0  4           0  0  0
    2.2688   -1.1136   -0.0114 C   0  0  0  0  0  4           0  0  0
   -1.0213    4.6137    3.2840 C   0  0  0  0  0  4           0  0  0
   -0.5421    0.0000    1.3968 C   0  0  0  0  0  4           0  0  0
   -0.7994    1.2075    2.0598 C   0  0  0  0  0  4           0  0  0
    0.6954    3.2106    4.2760 C   0  0  0  0  0  4           0  0  0
   -1.5280   -0.0087    4.0311 C   0  0  0  0  0  4           0  0  0
   -0.0749    5.6360    3.1244 C   0  0  0  0  0  4           0  0  0
   -0.7745   -1.2085    2.0709 C   0  0  0  0  0  4           0  0  0
   -1.2697   -1.2112    3.3774 C   0  0  0  0  0  4           0  0  0
    1.6267    4.2362    4.1192 C   0  0  0  0  0  4           0  0  0
    1.2419    5.4466    3.5469 C   0  0  0  0  0  4           0  0  0
   -2.3911    4.8079    2.8203 C   0  0  0  0  0  4           0  0  0
    1.7894   -2.5112   -0.0246 C   0  0  0  0  0  4           0  0  0
    0.0000    0.0000    0.0000 C   0  0  0  0  0  4           0  0  0
    1.7676    2.5213    0.0019 C   0  0  0  0  0  4           0  0  0
    2.5135    3.4023   -0.9959 C   0  0  0  0  0  4           0  0  0
    1.9861    4.8337   -0.9734 C   0  0  0  0  0  4           0  0  0
    2.7266    5.7155   -1.9663 C   0  0  0  0  0  4           0  0  0
  1  8  1  0     0  0
  2  9  1  0     0  0
  2 10  1  0     0  0
  3 23  2  0     0  0
  4 23  1  0     0  0
  5 24  1  0     0  0
  6 11  1  0     0  0
  6 12  1  0     0  0
  6 25  1  0     0  0
  7  8  1  0     0  0
  7 11  2  0     0  0
  8 12  2  0     0  0
  9 13  1  0     0  0
  9 16  2  0     0  0
 10 15  2  0     0  0
 10 17  1  0     0  0
 11 26  1  0     0  0
 12 24  1  0     0  0
 13 18  2  0     0  0
 13 23  1  0     0  0
 14 15  1  0     0  0
 14 19  2  0     0  0
 14 25  1  0     0  0
 16 21  1  0     0  0
 17 20  2  0     0  0
 18 22  1  0     0  0
 19 20  1  0     0  0
 21 22  2  0     0  0
 26 27  1  0     0  0
 27 28  1  0     0  0
 28 29  1  0     0  0
M  END
> <standard_type>
pIC50

> <# Confs.>
25

> <canonical_smiles>
ClC(N=C1CCCC)=C(CO)N1CC2=CC=CC(OC3=CC=CC=C3C(O)=O)=C2

> <standard_relation>
=

> <Publication_ID>
nan

> <predicted_activity_value>
7.3979400086720375

> <actual_activity_value>
6.3979400086720375

> <Compound>
12

> <standard_units>
nM

> hash
1572487227986651878

$$$$
11
XXILIB    08252103503D 0   0.00000     0.00000

 29 31  0     1  0            999 V2000
    5.0124    1.4761   -0.0112 Cl  0  0  0  0  0  1           0  0  0
   -1.5549    2.3881    4.0025 O   0  0  0  0  0  2           0  0  0
    0.6734    4.2800    3.2338 O   0  0  0  0  0  2           0  0  0
   -0.4237    5.9428    4.3755 O   0  0  0  0  0  2           0  0  0
    0.7468    2.6048   -0.9349 O   0  0  0  0  0  2           0  0  0
    1.4518   -0.0000    0.0000 N   0  0  0  0  0  3           0  0  0
    3.5350   -0.7729   -0.0069 N   0  0  0  0  0  3           0  0  0
    3.5513    0.5972   -0.0012 C   0  0  0  0  0  4           0  0  0
   -2.2560    3.3293    3.2874 C   0  0  0  0  0  4           0  0  0
   -1.2748    1.1953    3.3737 C   0  0  0  0  0  4           0  0  0
    2.2633   -1.1181   -0.0000 C   0  0  0  0  0  4           0  0  0
    2.2688    1.1136    0.0114 C   0  0  0  0  0  4           0  0  0
   -1.6759    4.5851    3.0468 C   0  0  0  0  0  4           0  0  0
   -0.5421    0.0000    1.3968 C   0  0  0  0  0  4           0  0  0
   -0.7994    1.2075    2.0598 C   0  0  0  0  0  4           0  0  0
   -3.5609    3.0660    2.8486 C   0  0  0  0  0  4           0  0  0
   -1.5280   -0.0087    4.0311 C   0  0  0  0  0  4           0  0  0
   -2.4024    5.5572    2.3447 C   0  0  0  0  0  4           0  0  0
   -0.7745   -1.2085    2.0709 C   0  0  0  0  0  4           0  0  0
   -1.2697   -1.2112    3.3774 C   0  0  0  0  0  4           0  0  0
   -4.2718    4.0374    2.1452 C   0  0  0  0  0  4           0  0  0
   -3.6932    5.2790    1.8919 C   0  0  0  0  0  4           0  0  0
   -0.3357    4.8881    3.5378 C   0  0  0  0  0  4           0  0  0
    1.7894    2.5112    0.0246 C   0  0  0  0  0  4           0  0  0
    0.0000    0.0000   -0.0000 C   0  0  0  0  0  4           0  0  0
    1.7676   -2.5213   -0.0019 C   0  0  0  0  0  4           0  0  0
    2.5159   -3.4005   -0.9993 C   0  0  0  0  0  4           0  0  0
    1.9885   -4.8320   -0.9807 C   0  0  0  0  0  4           0  0  0
    2.7314   -5.7120   -1.9734 C   0  0  0  0  0  4           0  0  0
  1  8  1  0     0  0
  2  9  1  0     0  0
  2 10  1  0     0  0
  3 23  2  0     0  0
  4 23  1  0     0  0
  5 24  1  0     0  0
  6 11  1  0     0  0
  6 12  1  0     0  0
  6 25  1  0     0  0
  7  8  1  0     0  0
  7 11  2  0     0  0
  8 12  2  0     0  0
  9 13  1  0     0  0
  9 16  2  0     0  0
 10 15  2  0     0  0
 10 17  1  0     0  0
 11 26  1  0     0  0
 12 24  1  0     0  0
 13 18  2  0     0  0
 13 23  1  0     0  0
 14 15  1  0     0  0
 14 19  2  0     0  0
 14 25  1  0     0  0
 16 21  1  0     0  0
 17 20  2  0     0  0
 18 22  1  0     0  0
 19 20  1  0     0  0
 21 22  2  0     0  0
 26 27  1  0     0  0
 27 28  1  0     0  0
 28 29  1  0     0  0
M  END
> <standard_type>
pIC50

> <# Confs.>
25

> <canonical_smiles>
ClC(N=C1CCCC)=C(CO)N1CC2=CC=CC(OC3=CC=CC=C3C(O)=O)=C2

> <standard_relation>
=

> <Publication_ID>
nan

> <predicted_activity_value>
7.3979400086720375

> <actual_activity_value>
6.3979400086720375

> <Compound>
12

> <standard_units>
nM

> hash
1572487227986651878

$$$$
11
XXILIB    08252103503D 0   0.00000     0.00000

 29 31  0     1  0            999 V2000
    5.0124    1.4761   -0.0112 Cl  0  0  0  0  0  1           0  0  0
   -1.5549    2.3881    4.0025 O   0  0  0  0  0  2           0  0  0
   -3.3816    4.7482    3.5244 O   0  0  0  0  0  2           0  0  0
   -2.3544    5.0572    1.4943 O   0  0  0  0  0  2           0  0  0
    0.7468    2.6048   -0.9349 O   0  0  0  0  0  2           0  0  0
    1.4518   -0.0000    0.0000 N   0  0  0  0  0  3           0  0  0
    3.5350   -0.7729   -0.0069 N   0  0  0  0  0  3           0  0  0
    3.5513    0.5972   -0.0012 C   0  0  0  0  0  4           0  0  0
   -0.6342    3.4004    3.8749 C   0  0  0  0  0  4           0  0  0
   -1.2748    1.1953    3.3737 C   0  0  0  0  0  4           0  0  0
    2.2633   -1.1181   -0.0000 C   0  0  0  0  0  4           0  0  0
    2.2688    1.1136    0.0114 C   0  0  0  0  0  4           0  0  0
   -1.0213    4.6137    3.2840 C   0  0  0  0  0  4           0  0  0
   -0.5421    0.0000    1.3968 C   0  0  0  0  0  4           0  0  0
   -0.7994    1.2075    2.0598 C   0  0  0  0  0  4           0  0  0
    0.6954    3.2106    4.2760 C   0  0  0  0  0  4           0  0  0
   -1.5280   -0.0087    4.0311 C   0  0  0  0  0  4           0  0  0
   -0.0749    5.6360    3.1244 C   0  0  0  0  0  4           0  0  0
   -0.7745   -1.2085    2.0709 C   0  0  0  0  0  4           0  0  0
   -1.2697   -1.2112    3.3774 C   0  0  0  0  0  4           0  0  0
    1.6267    4.2362    4.1192 C   0  0  0  0  0  4           0  0  0
    1.2419    5.4466    3.5469 C   0  0  0  0  0  4           0  0  0
   -2.3911    4.8079    2.8203 C   0  0  0  0  0  4           0  0  0
    1.7894    2.5112    0.0246 C   0  0  0  0  0  4           0  0  0
    0.0000    0.0000    0.0000 C   0  0  0  0  0  4           0  0  0
    1.7676   -2.5213   -0.0019 C   0  0  0  0  0  4           0  0  0
    2.5159   -3.4005   -0.9993 C   0  0  0  0  0  4           0  0  0
    1.9885   -4.8320   -0.9807 C   0  0  0  0  0  4           0  0  0
    2.7314   -5.7120   -1.9734 C   0  0  0  0  0  4           0  0  0
  1  8  1  0     0  0
  2  9  1  0     0  0
  2 10  1  0     0  0
  3 23  2  0     0  0
  4 23  1  0     0  0
  5 24  1  0     0  0
  6 11  1  0     0  0
  6 12  1  0     0  0
  6 25  1  0     0  0
  7  8  1  0     0  0
  7 11  2  0     0  0
  8 12  2  0     0  0
  9 13  1  0     0  0
  9 16  2  0     0  0
 10 15  2  0     0  0
 10 17  1  0     0  0
 11 26  1  0     0  0
 12 24  1  0     0  0
 13 18  2  0     0  0
 13 23  1  0     0  0
 14 15  1  0     0  0
 14 19  2  0     0  0
 14 25  1  0     0  0
 16 21  1  0     0  0
 17 20  2  0     0  0
 18 22  1  0     0  0
 19 20  1  0     0  0
 21 22  2  0     0  0
 26 27  1  0     0  0
 27 28  1  0     0  0
 28 29  1  0     0  0
M  END
> <standard_type>
pIC50

> <# Confs.>
25

> <canonical_smiles>
ClC(N=C1CCCC)=C(CO)N1CC2=CC=CC(OC3=CC=CC=C3C(O)=O)=C2

> <standard_relation>
=

> <Publication_ID>
nan

> <predicted_activity_value>
7.3979400086720375

> <actual_activity_value>
6.3979400086720375

> <Compound>
12

> <standard_units>
nM

> hash
1572487227986651878

$$$$
11
XXILIB    08252103503D 0   0.00000     0.00000

 29 31  0     1  0            999 V2000
    5.0124   -1.4761    0.0112 Cl  0  0  0  0  0  1           0  0  0
   -1.5523   -2.3881    4.0035 O   0  0  0  0  0  2           0  0  0
   -3.1751   -4.8737    3.4754 O   0  0  0  0  0  2           0  0  0
   -1.9980   -5.1836    1.5285 O   0  0  0  0  0  2           0  0  0
    0.7454   -2.5862   -0.9841 O   0  0  0  0  0  2           0  0  0
    1.4518   -0.0000   -0.0000 N   0  0  0  0  0  3           0  0  0
    3.5350    0.7729    0.0069 N   0  0  0  0  0  3           0  0  0
    3.5513   -0.5972    0.0012 C   0  0  0  0  0  4           0  0  0
   -0.5524   -3.3293    3.9486 C   0  0  0  0  0  4           0  0  0
   -1.3349   -1.1953    3.3504 C   0  0  0  0  0  4           0  0  0
    2.2633    1.1181    0.0000 C   0  0  0  0  0  4           0  0  0
    2.2688   -1.1136   -0.0114 C   0  0  0  0  0  4           0  0  0
   -0.8183   -4.5851    3.3797 C   0  0  0  0  0  4           0  0  0
   -0.5421    0.0000    1.3968 C   0  0  0  0  0  4           0  0  0
   -0.7994   -1.2075    2.0598 C   0  0  0  0  0  4           0  0  0
    0.7069   -3.0660    4.5049 C   0  0  0  0  0  4           0  0  0
   -1.5914    0.0087    4.0065 C   0  0  0  0  0  4           0  0  0
    0.1916   -5.5572    3.3515 C   0  0  0  0  0  4           0  0  0
   -0.8253    1.2085    2.0512 C   0  0  0  0  0  4           0  0  0
   -1.3411    1.2112    3.3497 C   0  0  0  0  0  4           0  0  0
    1.7063   -4.0374    4.4653 C   0  0  0  0  0  4           0  0  0
    1.4499   -5.2790    3.8880 C   0  0  0  0  0  4           0  0  0
   -2.1388   -4.8881    2.8380 C   0  0  0  0  0  4           0  0  0
    1.7894   -2.5112   -0.0246 C   0  0  0  0  0  4           0  0  0
    0.0000    0.0000   -0.0000 C   0  0  0  0  0  4           0  0  0
    1.7676    2.5213    0.0019 C   0  0  0  0  0  4           0  0  0
    2.5135    3.4023   -0.9959 C   0  0  0  0  0  4           0  0  0
    1.9861    4.8337   -0.9734 C   0  0  0  0  0  4           0  0  0
    2.7266    5.7155   -1.9663 C   0  0  0  0  0  4           0  0  0
  1  8  1  0     0  0
  2  9  1  0     0  0
  2 10  1  0     0  0
  3 23  2  0     0  0
  4 23  1  0     0  0
  5 24  1  0     0  0
  6 11  1  0     0  0
  6 12  1  0     0  0
  6 25  1  0     0  0
  7  8  1  0     0  0
  7 11  2  0     0  0
  8 12  2  0     0  0
  9 13  1  0     0  0
  9 16  2  0     0  0
 10 15  2  0     0  0
 10 17  1  0     0  0
 11 26  1  0     0  0
 12 24  1  0     0  0
 13 18  2  0     0  0
 13 23  1  0     0  0
 14 15  1  0     0  0
 14 19  2  0     0  0
 14 25  1  0     0  0
 16 21  1  0     0  0
 17 20  2  0     0  0
 18 22  1  0     0  0
 19 20  1  0     0  0
 21 22  2  0     0  0
 26 27  1  0     0  0
 27 28  1  0     0  0
 28 29  1  0     0  0
M  END
> <standard_type>
pIC50

> <# Confs.>
25

> <canonical_smiles>
ClC(N=C1CCCC)=C(CO)N1CC2=CC=CC(OC3=CC=CC=C3C(O)=O)=C2

> <standard_relation>
=

> <Publication_ID>
nan

> <predicted_activity_value>
7.3979400086720375

> <actual_activity_value>
6.3979400086720375

> <Compound>
12

> <standard_units>
nM

> hash
1572487227986651878

$$$$
11
XXILIB    08252103503D 0   0.00000     0.00000

 29 31  0     1  0            999 V2000
    5.0124    1.4761   -0.0112 Cl  0  0  0  0  0  1           0  0  0
   -1.5523   -2.3881    4.0035 O   0  0  0  0  0  2           0  0  0
   -3.1751   -4.8737    3.4754 O   0  0  0  0  0  2           0  0  0
   -1.9980   -5.1836    1.5285 O   0  0  0  0  0  2           0  0  0
    0.7468    2.6048   -0.9349 O   0  0  0  0  0  2           0  0  0
    1.4518   -0.0000    0.0000 N   0  0  0  0  0  3           0  0  0
    3.5350   -0.7729   -0.0069 N   0  0  0  0  0  3           0  0  0
    3.5513    0.5972   -0.0012 C   0  0  0  0  0  4           0  0  0
   -0.5524   -3.3293    3.9486 C   0  0  0  0  0  4           0  0  0
   -1.3349   -1.1953    3.3504 C   0  0  0  0  0  4           0  0  0
    2.2633   -1.1181   -0.0000 C   0  0  0  0  0  4           0  0  0
    2.2688    1.1136    0.0114 C   0  0  0  0  0  4           0  0  0
   -0.8183   -4.5851    3.3797 C   0  0  0  0  0  4           0  0  0
   -0.5421    0.0000    1.3968 C   0  0  0  0  0  4           0  0  0
   -0.7994   -1.2075    2.0598 C   0  0  0  0  0  4           0  0  0
    0.7069   -3.0660    4.5049 C   0  0  0  0  0  4           0  0  0
   -1.5914    0.0087    4.0065 C   0  0  0  0  0  4           0  0  0
    0.1916   -5.5572    3.3515 C   0  0  0  0  0  4           0  0  0
   -0.8253    1.2085    2.0512 C   0  0  0  0  0  4           0  0  0
   -1.3411    1.2112    3.3497 C   0  0  0  0  0  4           0  0  0
    1.7063   -4.0374    4.4653 C   0  0  0  0  0  4           0  0  0
    1.4499   -5.2790    3.8880 C   0  0  0  0  0  4           0  0  0
   -2.1388   -4.8881    2.8380 C   0  0  0  0  0  4           0  0  0
    1.7894    2.5112    0.0246 C   0  0  0  0  0  4           0  0  0
    0.0000    0.0000   -0.0000 C   0  0  0  0  0  4           0  0  0
    1.7676   -2.5213   -0.0019 C   0  0  0  0  0  4           0  0  0
    2.5159   -3.4005   -0.9993 C   0  0  0  0  0  4           0  0  0
    1.9885   -4.8320   -0.9807 C   0  0  0  0  0  4           0  0  0
    2.7314   -5.7120   -1.9734 C   0  0  0  0  0  4           0  0  0
  1  8  1  0     0  0
  2  9  1  0     0  0
  2 10  1  0     0  0
  3 23  2  0     0  0
  4 23  1  0     0  0
  5 24  1  0     0  0
  6 11  1  0     0  0
  6 12  1  0     0  0
  6 25  1  0     0  0
  7  8  1  0     0  0
  7 11  2  0     0  0
  8 12  2  0     0  0
  9 13  1  0     0  0
  9 16  2  0     0  0
 10 15  2  0     0  0
 10 17  1  0     0  0
 11 26  1  0     0  0
 12 24  1  0     0  0
 13 18  2  0     0  0
 13 23  1  0     0  0
 14 15  1  0     0  0
 14 19  2  0     0  0
 14 25  1  0     0  0
 16 21  1  0     0  0
 17 20  2  0     0  0
 18 22  1  0     0  0
 19 20  1  0     0  0
 21 22  2  0     0  0
 26 27  1  0     0  0
 27 28  1  0     0  0
 28 29  1  0     0  0
M  END
> <standard_type>
pIC50

> <# Confs.>
25

> <canonical_smiles>
ClC(N=C1CCCC)=C(CO)N1CC2=CC=CC(OC3=CC=CC=C3C(O)=O)=C2

> <standard_relation>
=

> <Publication_ID>
nan

> <predicted_activity_value>
7.3979400086720375

> <actual_activity_value>
6.3979400086720375

> <Compound>
12

> <standard_units>
nM

> hash
1572487227986651878

$$$$
11
XXILIB    08252103503D 0   0.00000     0.00000

 29 31  0     1  0            999 V2000
    5.0124   -1.4761    0.0112 Cl  0  0  0  0  0  1           0  0  0
   -1.5523   -2.3881    4.0035 O   0  0  0  0  0  2           0  0  0
    0.8422   -4.1322    3.4422 O   0  0  0  0  0  2           0  0  0
   -0.2013   -5.8553    4.5439 O   0  0  0  0  0  2           0  0  0
    0.7454   -2.5862   -0.9841 O   0  0  0  0  0  2           0  0  0
    1.4518   -0.0000   -0.0000 N   0  0  0  0  0  3           0  0  0
    3.5350    0.7729    0.0069 N   0  0  0  0  0  3           0  0  0
    3.5513   -0.5972    0.0012 C   0  0  0  0  0  4           0  0  0
   -2.1459   -3.4004    3.2882 C   0  0  0  0  0  4           0  0  0
   -1.3349   -1.1953    3.3504 C   0  0  0  0  0  4           0  0  0
    2.2633    1.1181    0.0000 C   0  0  0  0  0  4           0  0  0
    2.2688   -1.1136   -0.0114 C   0  0  0  0  0  4           0  0  0
   -1.4615   -4.6137    3.1131 C   0  0  0  0  0  4           0  0  0
   -0.5421    0.0000    1.3968 C   0  0  0  0  0  4           0  0  0
   -0.7994   -1.2075    2.0598 C   0  0  0  0  0  4           0  0  0
   -3.3979   -3.2106    2.6874 C   0  0  0  0  0  4           0  0  0
   -1.5914    0.0087    4.0065 C   0  0  0  0  0  4           0  0  0
   -2.0524   -5.6360    2.3569 C   0  0  0  0  0  4           0  0  0
   -0.8253    1.2085    2.0512 C   0  0  0  0  0  4           0  0  0
   -1.3411    1.2112    3.3497 C   0  0  0  0  0  4           0  0  0
   -3.9796   -4.2362    1.9433 C   0  0  0  0  0  4           0  0  0
   -3.3095   -5.4466    1.7805 C   0  0  0  0  0  4           0  0  0
   -0.1375   -4.8079    3.6950 C   0  0  0  0  0  4           0  0  0
    1.7894   -2.5112   -0.0246 C   0  0  0  0  0  4           0  0  0
   -0.0000    0.0000    0.0000 C   0  0  0  0  0  4           0  0  0
    1.7676    2.5213    0.0019 C   0  0  0  0  0  4           0  0  0
    2.5135    3.4023   -0.9959 C   0  0  0  0  0  4           0  0  0
    1.9861    4.8337   -0.9734 C   0  0  0  0  0  4           0  0  0
    2.7266    5.7155   -1.9663 C   0  0  0  0  0  4           0  0  0
  1  8  1  0     0  0
  2  9  1  0     0  0
  2 10  1  0     0  0
  3 23  2  0     0  0
  4 23  1  0     0  0
  5 24  1  0     0  0
  6 11  1  0     0  0
  6 12  1  0     0  0
  6 25  1  0     0  0
  7  8  1  0     0  0
  7 11  2  0     0  0
  8 12  2  0     0  0
  9 13  1  0     0  0
  9 16  2  0     0  0
 10 15  2  0     0  0
 10 17  1  0     0  0
 11 26  1  0     0  0
 12 24  1  0     0  0
 13 18  2  0     0  0
 13 23  1  0     0  0
 14 15  1  0     0  0
 14 19  2  0     0  0
 14 25  1  0     0  0
 16 21  1  0     0  0
 17 20  2  0     0  0
 18 22  1  0     0  0
 19 20  1  0     0  0
 21 22  2  0     0  0
 26 27  1  0     0  0
 27 28  1  0     0  0
 28 29  1  0     0  0
M  END
> <standard_type>
pIC50

> <# Confs.>
25

> <canonical_smiles>
ClC(N=C1CCCC)=C(CO)N1CC2=CC=CC(OC3=CC=CC=C3C(O)=O)=C2

> <standard_relation>
=

> <Publication_ID>
nan

> <predicted_activity_value>
7.3979400086720375

> <actual_activity_value>
6.3979400086720375

> <Compound>
12

> <standard_units>
nM

> hash
1572487227986651878

$$$$
11
XXILIB    08252103503D 0   0.00000     0.00000

 29 31  0     1  0            999 V2000
    5.0124    1.4761   -0.0112 Cl  0  0  0  0  0  1           0  0  0
   -1.5523   -2.3881    4.0035 O   0  0  0  0  0  2           0  0  0
    0.1187   -4.7482    4.8829 O   0  0  0  0  0  2           0  0  0
    0.7299   -5.0572    2.6913 O   0  0  0  0  0  2           0  0  0
    0.7468    2.6048   -0.9349 O   0  0  0  0  0  2           0  0  0
    1.4518   -0.0000    0.0000 N   0  0  0  0  0  3           0  0  0
    3.5350   -0.7729   -0.0069 N   0  0  0  0  0  3           0  0  0
    3.5513    0.5972   -0.0012 C   0  0  0  0  0  4           0  0  0
   -2.1459   -3.4004    3.2882 C   0  0  0  0  0  4           0  0  0
   -1.3349   -1.1953    3.3504 C   0  0  0  0  0  4           0  0  0
    2.2633   -1.1181   -0.0000 C   0  0  0  0  0  4           0  0  0
    2.2688    1.1136    0.0114 C   0  0  0  0  0  4           0  0  0
   -1.4615   -4.6137    3.1131 C   0  0  0  0  0  4           0  0  0
   -0.5421    0.0000    1.3968 C   0  0  0  0  0  4           0  0  0
   -0.7994   -1.2075    2.0598 C   0  0  0  0  0  4           0  0  0
   -3.3979   -3.2106    2.6874 C   0  0  0  0  0  4           0  0  0
   -1.5914    0.0087    4.0065 C   0  0  0  0  0  4           0  0  0
   -2.0524   -5.6360    2.3569 C   0  0  0  0  0  4           0  0  0
   -0.8253    1.2085    2.0512 C   0  0  0  0  0  4           0  0  0
   -1.3411    1.2112    3.3497 C   0  0  0  0  0  4           0  0  0
   -3.9796   -4.2362    1.9433 C   0  0  0  0  0  4           0  0  0
   -3.3095   -5.4466    1.7805 C   0  0  0  0  0  4           0  0  0
   -0.1375   -4.8079    3.6950 C   0  0  0  0  0  4           0  0  0
    1.7894    2.5112    0.0246 C   0  0  0  0  0  4           0  0  0
   -0.0000    0.0000    0.0000 C   0  0  0  0  0  4           0  0  0
    1.7676   -2.5213   -0.0019 C   0  0  0  0  0  4           0  0  0
    2.5159   -3.4005   -0.9993 C   0  0  0  0  0  4           0  0  0
    1.9885   -4.8320   -0.9807 C   0  0  0  0  0  4           0  0  0
    2.7314   -5.7120   -1.9734 C   0  0  0  0  0  4           0  0  0
  1  8  1  0     0  0
  2  9  1  0     0  0
  2 10  1  0     0  0
  3 23  2  0     0  0
  4 23  1  0     0  0
  5 24  1  0     0  0
  6 11  1  0     0  0
  6 12  1  0     0  0
  6 25  1  0     0  0
  7  8  1  0     0  0
  7 11  2  0     0  0
  8 12  2  0     0  0
  9 13  1  0     0  0
  9 16  2  0     0  0
 10 15  2  0     0  0
 10 17  1  0     0  0
 11 26  1  0     0  0
 12 24  1  0     0  0
 13 18  2  0     0  0
 13 23  1  0     0  0
 14 15  1  0     0  0
 14 19  2  0     0  0
 14 25  1  0     0  0
 16 21  1  0     0  0
 17 20  2  0     0  0
 18 22  1  0     0  0
 19 20  1  0     0  0
 21 22  2  0     0  0
 26 27  1  0     0  0
 27 28  1  0     0  0
 28 29  1  0     0  0
M  END
> <standard_type>
pIC50

> <# Confs.>
25

> <canonical_smiles>
ClC(N=C1CCCC)=C(CO)N1CC2=CC=CC(OC3=CC=CC=C3C(O)=O)=C2

> <standard_relation>
=

> <Publication_ID>
nan

> <predicted_activity_value>
7.3979400086720375

> <actual_activity_value>
6.3979400086720375

> <Compound>
12

> <standard_units>
nM

> hash
1572487227986651878

$$$$
11
XXILIB    08252103503D 0   0.00000     0.00000

 29 31  0     1  0            999 V2000
    5.0124   -1.4761    0.0112 Cl  0  0  0  0  0  1           0  0  0
   -1.5549    2.3881    4.0025 O   0  0  0  0  0  2           0  0  0
   -4.0238    2.2407    5.1246 O   0  0  0  0  0  2           0  0  0
   -4.0413    3.6801    6.9134 O   0  0  0  0  0  2           0  0  0
    0.7454   -2.5862   -0.9841 O   0  0  0  0  0  2           0  0  0
    1.4518   -0.0000   -0.0000 N   0  0  0  0  0  3           0  0  0
    3.5350    0.7729    0.0069 N   0  0  0  0  0  3           0  0  0
    3.5513   -0.5972    0.0012 C   0  0  0  0  0  4           0  0  0
   -1.1106    2.5405    5.2940 C   0  0  0  0  0  4           0  0  0
   -1.2748    1.1953    3.3737 C   0  0  0  0  0  4           0  0  0
    2.2633    1.1181    0.0000 C   0  0  0  0  0  4           0  0  0
    2.2688   -1.1136   -0.0114 C   0  0  0  0  0  4           0  0  0
   -2.0403    2.7743    6.3197 C   0  0  0  0  0  4           0  0  0
   -0.5421   -0.0000    1.3968 C   0  0  0  0  0  4           0  0  0
   -0.7994    1.2075    2.0598 C   0  0  0  0  0  4           0  0  0
    0.2607    2.5213    5.5839 C   0  0  0  0  0  4           0  0  0
   -1.5280   -0.0087    4.0311 C   0  0  0  0  0  4           0  0  0
   -1.5860    2.9614    7.6330 C   0  0  0  0  0  4           0  0  0
   -0.7745   -1.2085    2.0709 C   0  0  0  0  0  4           0  0  0
   -1.2697   -1.2112    3.3774 C   0  0  0  0  0  4           0  0  0
    0.7012    2.7015    6.8944 C   0  0  0  0  0  4           0  0  0
   -0.2199    2.9187    7.9166 C   0  0  0  0  0  4           0  0  0
   -3.4676    2.8421    6.0243 C   0  0  0  0  0  4           0  0  0
    1.7894   -2.5112   -0.0246 C   0  0  0  0  0  4           0  0  0
    0.0000    0.0000    0.0000 C   0  0  0  0  0  4           0  0  0
    1.7676    2.5213    0.0019 C   0  0  0  0  0  4           0  0  0
    2.5135    3.4023   -0.9959 C   0  0  0  0  0  4           0  0  0
    1.9861    4.8337   -0.9734 C   0  0  0  0  0  4           0  0  0
    2.7266    5.7155   -1.9663 C   0  0  0  0  0  4           0  0  0
  1  8  1  0     0  0
  2  9  1  0     0  0
  2 10  1  0     0  0
  3 23  2  0     0  0
  4 23  1  0     0  0
  5 24  1  0     0  0
  6 11  1  0     0  0
  6 12  1  0     0  0
  6 25  1  0     0  0
  7  8  1  0     0  0
  7 11  2  0     0  0
  8 12  2  0     0  0
  9 13  1  0     0  0
  9 16  2  0     0  0
 10 15  2  0     0  0
 10 17  1  0     0  0
 11 26  1  0     0  0
 12 24  1  0     0  0
 13 18  2  0     0  0
 13 23  1  0     0  0
 14 15  1  0     0  0
 14 19  2  0     0  0
 14 25  1  0     0  0
 16 21  1  0     0  0
 17 20  2  0     0  0
 18 22  1  0     0  0
 19 20  1  0     0  0
 21 22  2  0     0  0
 26 27  1  0     0  0
 27 28  1  0     0  0
 28 29  1  0     0  0
M  END
> <standard_type>
pIC50

> <# Confs.>
25

> <canonical_smiles>
ClC(N=C1CCCC)=C(CO)N1CC2=CC=CC(OC3=CC=CC=C3C(O)=O)=C2

> <standard_relation>
=

> <Publication_ID>
nan

> <predicted_activity_value>
7.3979400086720375

> <actual_activity_value>
6.3979400086720375

> <Compound>
12

> <standard_units>
nM

> hash
1572487227986651878

$$$$
11
XXILIB    08252103503D 0   0.00000     0.00000

 29 31  0     1  0            999 V2000
    5.0124    1.4761   -0.0112 Cl  0  0  0  0  0  1           0  0  0
   -1.5549    2.3881    4.0025 O   0  0  0  0  0  2           0  0  0
   -4.0238    2.2407    5.1246 O   0  0  0  0  0  2           0  0  0
   -4.0413    3.6801    6.9134 O   0  0  0  0  0  2           0  0  0
    0.7468    2.6048   -0.9349 O   0  0  0  0  0  2           0  0  0
    1.4518   -0.0000    0.0000 N   0  0  0  0  0  3           0  0  0
    3.5350   -0.7729   -0.0069 N   0  0  0  0  0  3           0  0  0
    3.5513    0.5972   -0.0012 C   0  0  0  0  0  4           0  0  0
   -1.1106    2.5405    5.2940 C   0  0  0  0  0  4           0  0  0
   -1.2748    1.1953    3.3737 C   0  0  0  0  0  4           0  0  0
    2.2633   -1.1181   -0.0000 C   0  0  0  0  0  4           0  0  0
    2.2688    1.1136    0.0114 C   0  0  0  0  0  4           0  0  0
   -2.0403    2.7743    6.3197 C   0  0  0  0  0  4           0  0  0
   -0.5421   -0.0000    1.3968 C   0  0  0  0  0  4           0  0  0
   -0.7994    1.2075    2.0598 C   0  0  0  0  0  4           0  0  0
    0.2607    2.5213    5.5839 C   0  0  0  0  0  4           0  0  0
   -1.5280   -0.0087    4.0311 C   0  0  0  0  0  4           0  0  0
   -1.5860    2.9614    7.6330 C   0  0  0  0  0  4           0  0  0
   -0.7745   -1.2085    2.0709 C   0  0  0  0  0  4           0  0  0
   -1.2697   -1.2112    3.3774 C   0  0  0  0  0  4           0  0  0
    0.7012    2.7015    6.8944 C   0  0  0  0  0  4           0  0  0
   -0.2199    2.9187    7.9166 C   0  0  0  0  0  4           0  0  0
   -3.4676    2.8421    6.0243 C   0  0  0  0  0  4           0  0  0
    1.7894    2.5112    0.0246 C   0  0  0  0  0  4           0  0  0
    0.0000    0.0000    0.0000 C   0  0  0  0  0  4           0  0  0
    1.7676   -2.5213   -0.0019 C   0  0  0  0  0  4           0  0  0
    2.5159   -3.4005   -0.9993 C   0  0  0  0  0  4           0  0  0
    1.9885   -4.8320   -0.9807 C   0  0  0  0  0  4           0  0  0
    2.7314   -5.7120   -1.9734 C   0  0  0  0  0  4           0  0  0
  1  8  1  0     0  0
  2  9  1  0     0  0
  2 10  1  0     0  0
  3 23  2  0     0  0
  4 23  1  0     0  0
  5 24  1  0     0  0
  6 11  1  0     0  0
  6 12  1  0     0  0
  6 25  1  0     0  0
  7  8  1  0     0  0
  7 11  2  0     0  0
  8 12  2  0     0  0
  9 13  1  0     0  0
  9 16  2  0     0  0
 10 15  2  0     0  0
 10 17  1  0     0  0
 11 26  1  0     0  0
 12 24  1  0     0  0
 13 18  2  0     0  0
 13 23  1  0     0  0
 14 15  1  0     0  0
 14 19  2  0     0  0
 14 25  1  0     0  0
 16 21  1  0     0  0
 17 20  2  0     0  0
 18 22  1  0     0  0
 19 20  1  0     0  0
 21 22  2  0     0  0
 26 27  1  0     0  0
 27 28  1  0     0  0
 28 29  1  0     0  0
M  END
> <standard_type>
pIC50

> <# Confs.>
25

> <canonical_smiles>
ClC(N=C1CCCC)=C(CO)N1CC2=CC=CC(OC3=CC=CC=C3C(O)=O)=C2

> <standard_relation>
=

> <Publication_ID>
nan

> <predicted_activity_value>
7.3979400086720375

> <actual_activity_value>
6.3979400086720375

> <Compound>
12

> <standard_units>
nM

> hash
1572487227986651878

$$$$
11
XXILIB    08252103503D 0   0.00000     0.00000

 29 31  0     1  0            999 V2000
    5.0124   -1.4761    0.0112 Cl  0  0  0  0  0  1           0  0  0
   -1.5523   -2.3881    4.0035 O   0  0  0  0  0  2           0  0  0
    0.1187   -4.7482    4.8829 O   0  0  0  0  0  2           0  0  0
    0.7299   -5.0572    2.6913 O   0  0  0  0  0  2           0  0  0
    0.7454   -2.5862   -0.9841 O   0  0  0  0  0  2           0  0  0
    1.4518   -0.0000   -0.0000 N   0  0  0  0  0  3           0  0  0
    3.5350    0.7729    0.0069 N   0  0  0  0  0  3           0  0  0
    3.5513   -0.5972    0.0012 C   0  0  0  0  0  4           0  0  0
   -2.1459   -3.4004    3.2882 C   0  0  0  0  0  4           0  0  0
   -1.3349   -1.1953    3.3504 C   0  0  0  0  0  4           0  0  0
    2.2633    1.1181    0.0000 C   0  0  0  0  0  4           0  0  0
    2.2688   -1.1136   -0.0114 C   0  0  0  0  0  4           0  0  0
   -1.4615   -4.6137    3.1131 C   0  0  0  0  0  4           0  0  0
   -0.5421    0.0000    1.3968 C   0  0  0  0  0  4           0  0  0
   -0.7994   -1.2075    2.0598 C   0  0  0  0  0  4           0  0  0
   -3.3979   -3.2106    2.6874 C   0  0  0  0  0  4           0  0  0
   -1.5914    0.0087    4.0065 C   0  0  0  0  0  4           0  0  0
   -2.0524   -5.6360    2.3569 C   0  0  0  0  0  4           0  0  0
   -0.8253    1.2085    2.0512 C   0  0  0  0  0  4           0  0  0
   -1.3411    1.2112    3.3497 C   0  0  0  0  0  4           0  0  0
   -3.9796   -4.2362    1.9433 C   0  0  0  0  0  4           0  0  0
   -3.3095   -5.4466    1.7805 C   0  0  0  0  0  4           0  0  0
   -0.1375   -4.8079    3.6950 C   0  0  0  0  0  4           0  0  0
    1.7894   -2.5112   -0.0246 C   0  0  0  0  0  4           0  0  0
   -0.0000    0.0000    0.0000 C   0  0  0  0  0  4           0  0  0
    1.7676    2.5213    0.0019 C   0  0  0  0  0  4           0  0  0
    2.5135    3.4023   -0.9959 C   0  0  0  0  0  4           0  0  0
    1.9861    4.8337   -0.9734 C   0  0  0  0  0  4           0  0  0
    2.7266    5.7155   -1.9663 C   0  0  0  0  0  4           0  0  0
  1  8  1  0     0  0
  2  9  1  0     0  0
  2 10  1  0     0  0
  3 23  2  0     0  0
  4 23  1  0     0  0
  5 24  1  0     0  0
  6 11  1  0     0  0
  6 12  1  0     0  0
  6 25  1  0     0  0
  7  8  1  0     0  0
  7 11  2  0     0  0
  8 12  2  0     0  0
  9 13  1  0     0  0
  9 16  2  0     0  0
 10 15  2  0     0  0
 10 17  1  0     0  0
 11 26  1  0     0  0
 12 24  1  0     0  0
 13 18  2  0     0  0
 13 23  1  0     0  0
 14 15  1  0     0  0
 14 19  2  0     0  0
 14 25  1  0     0  0
 16 21  1  0     0  0
 17 20  2  0     0  0
 18 22  1  0     0  0
 19 20  1  0     0  0
 21 22  2  0     0  0
 26 27  1  0     0  0
 27 28  1  0     0  0
 28 29  1  0     0  0
M  END
> <standard_type>
pIC50

> <# Confs.>
25

> <canonical_smiles>
ClC(N=C1CCCC)=C(CO)N1CC2=CC=CC(OC3=CC=CC=C3C(O)=O)=C2

> <standard_relation>
=

> <Publication_ID>
nan

> <predicted_activity_value>
7.3979400086720375

> <actual_activity_value>
6.3979400086720375

> <Compound>
12

> <standard_units>
nM

> hash
1572487227986651878

$$$$
11
XXILIB    08252103503D 0   0.00000     0.00000

 29 31  0     1  0            999 V2000
    5.0124   -1.4761    0.0112 Cl  0  0  0  0  0  1           0  0  0
   -1.5523   -2.3881    4.0035 O   0  0  0  0  0  2           0  0  0
   -2.6786   -4.2800    1.9328 O   0  0  0  0  0  2           0  0  0
   -2.6389   -5.9428    3.5157 O   0  0  0  0  0  2           0  0  0
    0.7454   -2.5862   -0.9841 O   0  0  0  0  0  2           0  0  0
    1.4518    0.0000    0.0000 N   0  0  0  0  0  3           0  0  0
    3.5350    0.7729    0.0069 N   0  0  0  0  0  3           0  0  0
    3.5513   -0.5972    0.0012 C   0  0  0  0  0  4           0  0  0
   -0.5524   -3.3293    3.9486 C   0  0  0  0  0  4           0  0  0
   -1.3349   -1.1953    3.3504 C   0  0  0  0  0  4           0  0  0
    2.2633    1.1181    0.0000 C   0  0  0  0  0  4           0  0  0
    2.2688   -1.1136   -0.0114 C   0  0  0  0  0  4           0  0  0
   -0.8183   -4.5851    3.3797 C   0  0  0  0  0  4           0  0  0
   -0.5421    0.0000    1.3968 C   0  0  0  0  0  4           0  0  0
   -0.7994   -1.2075    2.0598 C   0  0  0  0  0  4           0  0  0
    0.7069   -3.0660    4.5049 C   0  0  0  0  0  4           0  0  0
   -1.5914    0.0087    4.0065 C   0  0  0  0  0  4           0  0  0
    0.1916   -5.5572    3.3515 C   0  0  0  0  0  4           0  0  0
   -0.8253    1.2085    2.0512 C   0  0  0  0  0  4           0  0  0
   -1.3411    1.2112    3.3497 C   0  0  0  0  0  4           0  0  0
    1.7063   -4.0374    4.4653 C   0  0  0  0  0  4           0  0  0
    1.4499   -5.2790    3.8880 C   0  0  0  0  0  4           0  0  0
   -2.1388   -4.8881    2.8380 C   0  0  0  0  0  4           0  0  0
    1.7894   -2.5112   -0.0246 C   0  0  0  0  0  4           0  0  0
    0.0000    0.0000   -0.0000 C   0  0  0  0  0  4           0  0  0
    1.7676    2.5213    0.0019 C   0  0  0  0  0  4           0  0  0
    2.5159    3.4005    0.9993 C   0  0  0  0  0  4           0  0  0
    1.9885    4.8320    0.9807 C   0  0  0  0  0  4           0  0  0
    2.7314    5.7120    1.9734 C   0  0  0  0  0  4           0  0  0
  1  8  1  0     0  0
  2  9  1  0     0  0
  2 10  1  0     0  0
  3 23  2  0     0  0
  4 23  1  0     0  0
  5 24  1  0     0  0
  6 11  1  0     0  0
  6 12  1  0     0  0
  6 25  1  0     0  0
  7  8  1  0     0  0
  7 11  2  0     0  0
  8 12  2  0     0  0
  9 13  1  0     0  0
  9 16  2  0     0  0
 10 15  2  0     0  0
 10 17  1  0     0  0
 11 26  1  0     0  0
 12 24  1  0     0  0
 13 18  2  0     0  0
 13 23  1  0     0  0
 14 15  1  0     0  0
 14 19  2  0     0  0
 14 25  1  0     0  0
 16 21  1  0     0  0
 17 20  2  0     0  0
 18 22  1  0     0  0
 19 20  1  0     0  0
 21 22  2  0     0  0
 26 27  1  0     0  0
 27 28  1  0     0  0
 28 29  1  0     0  0
M  END
> <standard_type>
pIC50

> <# Confs.>
25

> <canonical_smiles>
ClC(N=C1CCCC)=C(CO)N1CC2=CC=CC(OC3=CC=CC=C3C(O)=O)=C2

> <standard_relation>
=

> <Publication_ID>
nan

> <predicted_activity_value>
7.3979400086720375

> <actual_activity_value>
6.3979400086720375

> <Compound>
12

> <standard_units>
nM

> hash
1572487227986651878

$$$$
11
XXILIB    08252103503D 0   0.00000     0.00000

 29 31  0     1  0            999 V2000
    5.0124   -1.4761    0.0112 Cl  0  0  0  0  0  1           0  0  0
   -1.5549    2.3881    4.0025 O   0  0  0  0  0  2           0  0  0
   -0.0007    4.8737    4.7074 O   0  0  0  0  0  2           0  0  0
    0.4437    5.1836    2.4762 O   0  0  0  0  0  2           0  0  0
    0.7454   -2.5862   -0.9841 O   0  0  0  0  0  2           0  0  0
    1.4518   -0.0000   -0.0000 N   0  0  0  0  0  3           0  0  0
    3.5350    0.7729    0.0069 N   0  0  0  0  0  3           0  0  0
    3.5513   -0.5972    0.0012 C   0  0  0  0  0  4           0  0  0
   -2.2560    3.3293    3.2874 C   0  0  0  0  0  4           0  0  0
   -1.2748    1.1953    3.3737 C   0  0  0  0  0  4           0  0  0
    2.2633    1.1181    0.0000 C   0  0  0  0  0  4           0  0  0
    2.2688   -1.1136   -0.0114 C   0  0  0  0  0  4           0  0  0
   -1.6759    4.5851    3.0468 C   0  0  0  0  0  4           0  0  0
   -0.5421    0.0000    1.3968 C   0  0  0  0  0  4           0  0  0
   -0.7994    1.2075    2.0598 C   0  0  0  0  0  4           0  0  0
   -3.5609    3.0660    2.8486 C   0  0  0  0  0  4           0  0  0
   -1.5280   -0.0087    4.0311 C   0  0  0  0  0  4           0  0  0
   -2.4024    5.5572    2.3447 C   0  0  0  0  0  4           0  0  0
   -0.7745   -1.2085    2.0709 C   0  0  0  0  0  4           0  0  0
   -1.2697   -1.2112    3.3774 C   0  0  0  0  0  4           0  0  0
   -4.2718    4.0374    2.1452 C   0  0  0  0  0  4           0  0  0
   -3.6932    5.2790    1.8919 C   0  0  0  0  0  4           0  0  0
   -0.3357    4.8881    3.5378 C   0  0  0  0  0  4           0  0  0
    1.7894   -2.5112   -0.0246 C   0  0  0  0  0  4           0  0  0
    0.0000    0.0000   -0.0000 C   0  0  0  0  0  4           0  0  0
    1.7676    2.5213    0.0019 C   0  0  0  0  0  4           0  0  0
    2.5135    3.4023   -0.9959 C   0  0  0  0  0  4           0  0  0
    1.9861    4.8337   -0.9734 C   0  0  0  0  0  4           0  0  0
    2.7266    5.7155   -1.9663 C   0  0  0  0  0  4           0  0  0
  1  8  1  0     0  0
  2  9  1  0     0  0
  2 10  1  0     0  0
  3 23  2  0     0  0
  4 23  1  0     0  0
  5 24  1  0     0  0
  6 11  1  0     0  0
  6 12  1  0     0  0
  6 25  1  0     0  0
  7  8  1  0     0  0
  7 11  2  0     0  0
  8 12  2  0     0  0
  9 13  1  0     0  0
  9 16  2  0     0  0
 10 15  2  0     0  0
 10 17  1  0     0  0
 11 26  1  0     0  0
 12 24  1  0     0  0
 13 18  2  0     0  0
 13 23  1  0     0  0
 14 15  1  0     0  0
 14 19  2  0     0  0
 14 25  1  0     0  0
 16 21  1  0     0  0
 17 20  2  0     0  0
 18 22  1  0     0  0
 19 20  1  0     0  0
 21 22  2  0     0  0
 26 27  1  0     0  0
 27 28  1  0     0  0
 28 29  1  0     0  0
M  END
> <standard_type>
pIC50

> <# Confs.>
25

> <canonical_smiles>
ClC(N=C1CCCC)=C(CO)N1CC2=CC=CC(OC3=CC=CC=C3C(O)=O)=C2

> <standard_relation>
=

> <Publication_ID>
nan

> <predicted_activity_value>
7.3979400086720375

> <actual_activity_value>
6.3979400086720375

> <Compound>
12

> <standard_units>
nM

> hash
1572487227986651878

$$$$
11
XXILIB    08252103503D 0   0.00000     0.00000

 29 31  0     1  0            999 V2000
    5.0124   -1.4761    0.0112 Cl  0  0  0  0  0  1           0  0  0
    0.0216   -1.6877    4.6143 O   0  0  0  0  0  2           0  0  0
    0.2158   -4.3914    4.5609 O   0  0  0  0  0  2           0  0  0
    2.1445   -4.9241    3.4348 O   0  0  0  0  0  2           0  0  0
    1.6527   -2.8936   -1.3853 O   0  0  0  0  0  2           0  0  0
    1.4518   -0.0000   -0.0000 N   0  0  0  0  0  3           0  0  0
    3.5350    0.7729    0.0069 N   0  0  0  0  0  3           0  0  0
    3.5513   -0.5972    0.0012 C   0  0  0  0  0  4           0  0  0
    1.3928   -1.7081    4.7035 C   0  0  0  0  0  4           0  0  0
   -0.5381   -0.8680    3.6597 C   0  0  0  0  0  4           0  0  0
    2.2633    1.1181    0.0000 C   0  0  0  0  0  4           0  0  0
    2.2688   -1.1136   -0.0114 C   0  0  0  0  0  4           0  0  0
    2.0786   -2.9169    4.5040 C   0  0  0  0  0  4           0  0  0
   -0.5421    0.0000    1.3968 C   0  0  0  0  0  4           0  0  0
   -0.0034   -0.8538    2.3687 C   0  0  0  0  0  4           0  0  0
    2.1030   -0.5494    5.0468 C   0  0  0  0  0  4           0  0  0
   -1.5879   -0.0179    4.0079 C   0  0  0  0  0  4           0  0  0
    3.4751   -2.9458    4.6258 C   0  0  0  0  0  4           0  0  0
   -1.6145    0.8353    1.7449 C   0  0  0  0  0  4           0  0  0
   -2.1291    0.8294    3.0439 C   0  0  0  0  0  4           0  0  0
    3.4923   -0.5877    5.1584 C   0  0  0  0  0  4           0  0  0
    4.1767   -1.7823    4.9462 C   0  0  0  0  0  4           0  0  0
    1.3475   -4.1402    4.1910 C   0  0  0  0  0  4           0  0  0
    1.7894   -2.5112   -0.0246 C   0  0  0  0  0  4           0  0  0
    0.0000    0.0000    0.0000 C   0  0  0  0  0  4           0  0  0
    1.7676    2.5213    0.0019 C   0  0  0  0  0  4           0  0  0
    1.5724    3.0704   -1.4082 C   0  0  0  0  0  4           0  0  0
    1.0643    4.5087   -1.3773 C   0  0  0  0  0  4           0  0  0
    0.8682    5.0601   -2.7806 C   0  0  0  0  0  4           0  0  0
  1  8  1  0     0  0
  2  9  1  0     0  0
  2 10  1  0     0  0
  3 23  2  0     0  0
  4 23  1  0     0  0
  5 24  1  0     0  0
  6 11  1  0     0  0
  6 12  1  0     0  0
  6 25  1  0     0  0
  7  8  1  0     0  0
  7 11  2  0     0  0
  8 12  2  0     0  0
  9 13  1  0     0  0
  9 16  2  0     0  0
 10 15  2  0     0  0
 10 17  1  0     0  0
 11 26  1  0     0  0
 12 24  1  0     0  0
 13 18  2  0     0  0
 13 23  1  0     0  0
 14 15  1  0     0  0
 14 19  2  0     0  0
 14 25  1  0     0  0
 16 21  1  0     0  0
 17 20  2  0     0  0
 18 22  1  0     0  0
 19 20  1  0     0  0
 21 22  2  0     0  0
 26 27  1  0     0  0
 27 28  1  0     0  0
 28 29  1  0     0  0
M  END
> <standard_type>
pIC50

> <# Confs.>
25

> <canonical_smiles>
ClC(N=C1CCCC)=C(CO)N1CC2=CC=CC(OC3=CC=CC=C3C(O)=O)=C2

> <standard_relation>
=

> <Publication_ID>
nan

> <predicted_activity_value>
7.3979400086720375

> <actual_activity_value>
6.3979400086720375

> <Compound>
12

> <standard_units>
nM

> hash
1572487227986651878

$$$$
11
XXILIB    08252103503D 0   0.00000     0.00000

 29 31  0     1  0            999 V2000
    5.0124   -1.4761    0.0112 Cl  0  0  0  0  0  1           0  0  0
   -1.5549    2.3881    4.0025 O   0  0  0  0  0  2           0  0  0
    0.6734    4.2800    3.2338 O   0  0  0  0  0  2           0  0  0
   -0.4237    5.9428    4.3755 O   0  0  0  0  0  2           0  0  0
    0.7454   -2.5862   -0.9841 O   0  0  0  0  0  2           0  0  0
    1.4518   -0.0000   -0.0000 N   0  0  0  0  0  3           0  0  0
    3.5350    0.7729    0.0069 N   0  0  0  0  0  3           0  0  0
    3.5513   -0.5972    0.0012 C   0  0  0  0  0  4           0  0  0
   -2.2560    3.3293    3.2874 C   0  0  0  0  0  4           0  0  0
   -1.2748    1.1953    3.3737 C   0  0  0  0  0  4           0  0  0
    2.2633    1.1181    0.0000 C   0  0  0  0  0  4           0  0  0
    2.2688   -1.1136   -0.0114 C   0  0  0  0  0  4           0  0  0
   -1.6759    4.5851    3.0468 C   0  0  0  0  0  4           0  0  0
   -0.5421    0.0000    1.3968 C   0  0  0  0  0  4           0  0  0
   -0.7994    1.2075    2.0598 C   0  0  0  0  0  4           0  0  0
   -3.5609    3.0660    2.8486 C   0  0  0  0  0  4           0  0  0
   -1.5280   -0.0087    4.0311 C   0  0  0  0  0  4           0  0  0
   -2.4024    5.5572    2.3447 C   0  0  0  0  0  4           0  0  0
   -0.7745   -1.2085    2.0709 C   0  0  0  0  0  4           0  0  0
   -1.2697   -1.2112    3.3774 C   0  0  0  0  0  4           0  0  0
   -4.2718    4.0374    2.1452 C   0  0  0  0  0  4           0  0  0
   -3.6932    5.2790    1.8919 C   0  0  0  0  0  4           0  0  0
   -0.3357    4.8881    3.5378 C   0  0  0  0  0  4           0  0  0
    1.7894   -2.5112   -0.0246 C   0  0  0  0  0  4           0  0  0
    0.0000    0.0000   -0.0000 C   0  0  0  0  0  4           0  0  0
    1.7676    2.5213    0.0019 C   0  0  0  0  0  4           0  0  0
    2.5135    3.4023   -0.9959 C   0  0  0  0  0  4           0  0  0
    1.9861    4.8337   -0.9734 C   0  0  0  0  0  4           0  0  0
    2.7266    5.7155   -1.9663 C   0  0  0  0  0  4           0  0  0
  1  8  1  0     0  0
  2  9  1  0     0  0
  2 10  1  0     0  0
  3 23  2  0     0  0
  4 23  1  0     0  0
  5 24  1  0     0  0
  6 11  1  0     0  0
  6 12  1  0     0  0
  6 25  1  0     0  0
  7  8  1  0     0  0
  7 11  2  0     0  0
  8 12  2  0     0  0
  9 13  1  0     0  0
  9 16  2  0     0  0
 10 15  2  0     0  0
 10 17  1  0     0  0
 11 26  1  0     0  0
 12 24  1  0     0  0
 13 18  2  0     0  0
 13 23  1  0     0  0
 14 15  1  0     0  0
 14 19  2  0     0  0
 14 25  1  0     0  0
 16 21  1  0     0  0
 17 20  2  0     0  0
 18 22  1  0     0  0
 19 20  1  0     0  0
 21 22  2  0     0  0
 26 27  1  0     0  0
 27 28  1  0     0  0
 28 29  1  0     0  0
M  END
> <standard_type>
pIC50

> <# Confs.>
25

> <canonical_smiles>
ClC(N=C1CCCC)=C(CO)N1CC2=CC=CC(OC3=CC=CC=C3C(O)=O)=C2

> <standard_relation>
=

> <Publication_ID>
nan

> <predicted_activity_value>
7.3979400086720375

> <actual_activity_value>
6.3979400086720375

> <Compound>
12

> <standard_units>
nM

> hash
1572487227986651878

$$$$
11
XXILIB    08252103503D 0   0.00000     0.00000

 29 31  0     1  0            999 V2000
    5.0124   -1.4761    0.0112 Cl  0  0  0  0  0  1           0  0  0
    0.0216   -1.6877    4.6143 O   0  0  0  0  0  2           0  0  0
    0.2158   -4.3914    4.5609 O   0  0  0  0  0  2           0  0  0
    2.1445   -4.9241    3.4348 O   0  0  0  0  0  2           0  0  0
    1.6527   -2.8936   -1.3853 O   0  0  0  0  0  2           0  0  0
    1.4518   -0.0000   -0.0000 N   0  0  0  0  0  3           0  0  0
    3.5350    0.7729    0.0069 N   0  0  0  0  0  3           0  0  0
    3.5513   -0.5972    0.0012 C   0  0  0  0  0  4           0  0  0
    1.3928   -1.7081    4.7035 C   0  0  0  0  0  4           0  0  0
   -0.5381   -0.8680    3.6597 C   0  0  0  0  0  4           0  0  0
    2.2633    1.1181    0.0000 C   0  0  0  0  0  4           0  0  0
    2.2688   -1.1136   -0.0114 C   0  0  0  0  0  4           0  0  0
    2.0786   -2.9169    4.5040 C   0  0  0  0  0  4           0  0  0
   -0.5421    0.0000    1.3968 C   0  0  0  0  0  4           0  0  0
   -0.0034   -0.8538    2.3687 C   0  0  0  0  0  4           0  0  0
    2.1030   -0.5494    5.0468 C   0  0  0  0  0  4           0  0  0
   -1.5879   -0.0179    4.0079 C   0  0  0  0  0  4           0  0  0
    3.4751   -2.9458    4.6258 C   0  0  0  0  0  4           0  0  0
   -1.6145    0.8353    1.7449 C   0  0  0  0  0  4           0  0  0
   -2.1291    0.8294    3.0439 C   0  0  0  0  0  4           0  0  0
    3.4923   -0.5877    5.1584 C   0  0  0  0  0  4           0  0  0
    4.1767   -1.7823    4.9462 C   0  0  0  0  0  4           0  0  0
    1.3475   -4.1402    4.1910 C   0  0  0  0  0  4           0  0  0
    1.7894   -2.5112   -0.0246 C   0  0  0  0  0  4           0  0  0
    0.0000    0.0000    0.0000 C   0  0  0  0  0  4           0  0  0
    1.7676    2.5213    0.0019 C   0  0  0  0  0  4           0  0  0
    1.5758    3.0679    1.4134 C   0  0  0  0  0  4           0  0  0
    1.0677    4.5062    1.3863 C   0  0  0  0  0  4           0  0  0
    0.8751    5.0552    2.7910 C   0  0  0  0  0  4           0  0  0
  1  8  1  0     0  0
  2  9  1  0     0  0
  2 10  1  0     0  0
  3 23  2  0     0  0
  4 23  1  0     0  0
  5 24  1  0     0  0
  6 11  1  0     0  0
  6 12  1  0     0  0
  6 25  1  0     0  0
  7  8  1  0     0  0
  7 11  2  0     0  0
  8 12  2  0     0  0
  9 13  1  0     0  0
  9 16  2  0     0  0
 10 15  2  0     0  0
 10 17  1  0     0  0
 11 26  1  0     0  0
 12 24  1  0     0  0
 13 18  2  0     0  0
 13 23  1  0     0  0
 14 15  1  0     0  0
 14 19  2  0     0  0
 14 25  1  0     0  0
 16 21  1  0     0  0
 17 20  2  0     0  0
 18 22  1  0     0  0
 19 20  1  0     0  0
 21 22  2  0     0  0
 26 27  1  0     0  0
 27 28  1  0     0  0
 28 29  1  0     0  0
M  END
> <standard_type>
pIC50

> <# Confs.>
25

> <canonical_smiles>
ClC(N=C1CCCC)=C(CO)N1CC2=CC=CC(OC3=CC=CC=C3C(O)=O)=C2

> <standard_relation>
=

> <Publication_ID>
nan

> <predicted_activity_value>
7.3979400086720375

> <actual_activity_value>
6.3979400086720375

> <Compound>
12

> <standard_units>
nM

> hash
1572487227986651878

$$$$
11
XXILIB    08252103503D 0   0.00000     0.00000

 29 31  0     1  0            999 V2000
    5.0124    1.4761   -0.0112 Cl  0  0  0  0  0  1           0  0  0
   -1.5549    2.3881    4.0025 O   0  0  0  0  0  2           0  0  0
   -0.0007    4.8737    4.7074 O   0  0  0  0  0  2           0  0  0
    0.4437    5.1836    2.4762 O   0  0  0  0  0  2           0  0  0
    0.7468    2.6048   -0.9349 O   0  0  0  0  0  2           0  0  0
    1.4518   -0.0000    0.0000 N   0  0  0  0  0  3           0  0  0
    3.5350   -0.7729   -0.0069 N   0  0  0  0  0  3           0  0  0
    3.5513    0.5972   -0.0012 C   0  0  0  0  0  4           0  0  0
   -2.2560    3.3293    3.2874 C   0  0  0  0  0  4           0  0  0
   -1.2748    1.1953    3.3737 C   0  0  0  0  0  4           0  0  0
    2.2633   -1.1181   -0.0000 C   0  0  0  0  0  4           0  0  0
    2.2688    1.1136    0.0114 C   0  0  0  0  0  4           0  0  0
   -1.6759    4.5851    3.0468 C   0  0  0  0  0  4           0  0  0
   -0.5421    0.0000    1.3968 C   0  0  0  0  0  4           0  0  0
   -0.7994    1.2075    2.0598 C   0  0  0  0  0  4           0  0  0
   -3.5609    3.0660    2.8486 C   0  0  0  0  0  4           0  0  0
   -1.5280   -0.0087    4.0311 C   0  0  0  0  0  4           0  0  0
   -2.4024    5.5572    2.3447 C   0  0  0  0  0  4           0  0  0
   -0.7745   -1.2085    2.0709 C   0  0  0  0  0  4           0  0  0
   -1.2697   -1.2112    3.3774 C   0  0  0  0  0  4           0  0  0
   -4.2718    4.0374    2.1452 C   0  0  0  0  0  4           0  0  0
   -3.6932    5.2790    1.8919 C   0  0  0  0  0  4           0  0  0
   -0.3357    4.8881    3.5378 C   0  0  0  0  0  4           0  0  0
    1.7894    2.5112    0.0246 C   0  0  0  0  0  4           0  0  0
    0.0000    0.0000   -0.0000 C   0  0  0  0  0  4           0  0  0
    1.7676   -2.5213   -0.0019 C   0  0  0  0  0  4           0  0  0
    2.5159   -3.4005   -0.9993 C   0  0  0  0  0  4           0  0  0
    1.9885   -4.8320   -0.9807 C   0  0  0  0  0  4           0  0  0
    2.7314   -5.7120   -1.9734 C   0  0  0  0  0  4           0  0  0
  1  8  1  0     0  0
  2  9  1  0     0  0
  2 10  1  0     0  0
  3 23  2  0     0  0
  4 23  1  0     0  0
  5 24  1  0     0  0
  6 11  1  0     0  0
  6 12  1  0     0  0
  6 25  1  0     0  0
  7  8  1  0     0  0
  7 11  2  0     0  0
  8 12  2  0     0  0
  9 13  1  0     0  0
  9 16  2  0     0  0
 10 15  2  0     0  0
 10 17  1  0     0  0
 11 26  1  0     0  0
 12 24  1  0     0  0
 13 18  2  0     0  0
 13 23  1  0     0  0
 14 15  1  0     0  0
 14 19  2  0     0  0
 14 25  1  0     0  0
 16 21  1  0     0  0
 17 20  2  0     0  0
 18 22  1  0     0  0
 19 20  1  0     0  0
 21 22  2  0     0  0
 26 27  1  0     0  0
 27 28  1  0     0  0
 28 29  1  0     0  0
M  END
> <standard_type>
pIC50

> <# Confs.>
25

> <canonical_smiles>
ClC(N=C1CCCC)=C(CO)N1CC2=CC=CC(OC3=CC=CC=C3C(O)=O)=C2

> <standard_relation>
=

> <Publication_ID>
nan

> <predicted_activity_value>
7.3979400086720375

> <actual_activity_value>
6.3979400086720375

> <Compound>
12

> <standard_units>
nM

> hash
1572487227986651878

$$$$
11
XXILIB    08252103503D 0   0.00000     0.00000

 29 31  0     1  0            999 V2000
    5.0124    1.4761   -0.0112 Cl  0  0  0  0  0  1           0  0  0
   -1.5523   -2.3881    4.0035 O   0  0  0  0  0  2           0  0  0
    0.8422   -4.1322    3.4422 O   0  0  0  0  0  2           0  0  0
   -0.2013   -5.8553    4.5439 O   0  0  0  0  0  2           0  0  0
    0.7468    2.6048   -0.9349 O   0  0  0  0  0  2           0  0  0
    1.4518   -0.0000    0.0000 N   0  0  0  0  0  3           0  0  0
    3.5350   -0.7729   -0.0069 N   0  0  0  0  0  3           0  0  0
    3.5513    0.5972   -0.0012 C   0  0  0  0  0  4           0  0  0
   -2.1459   -3.4004    3.2882 C   0  0  0  0  0  4           0  0  0
   -1.3349   -1.1953    3.3504 C   0  0  0  0  0  4           0  0  0
    2.2633   -1.1181   -0.0000 C   0  0  0  0  0  4           0  0  0
    2.2688    1.1136    0.0114 C   0  0  0  0  0  4           0  0  0
   -1.4615   -4.6137    3.1131 C   0  0  0  0  0  4           0  0  0
   -0.5421    0.0000    1.3968 C   0  0  0  0  0  4           0  0  0
   -0.7994   -1.2075    2.0598 C   0  0  0  0  0  4           0  0  0
   -3.3979   -3.2106    2.6874 C   0  0  0  0  0  4           0  0  0
   -1.5914    0.0087    4.0065 C   0  0  0  0  0  4           0  0  0
   -2.0524   -5.6360    2.3569 C   0  0  0  0  0  4           0  0  0
   -0.8253    1.2085    2.0512 C   0  0  0  0  0  4           0  0  0
   -1.3411    1.2112    3.3497 C   0  0  0  0  0  4           0  0  0
   -3.9796   -4.2362    1.9433 C   0  0  0  0  0  4           0  0  0
   -3.3095   -5.4466    1.7805 C   0  0  0  0  0  4           0  0  0
   -0.1375   -4.8079    3.6950 C   0  0  0  0  0  4           0  0  0
    1.7894    2.5112    0.0246 C   0  0  0  0  0  4           0  0  0
   -0.0000    0.0000    0.0000 C   0  0  0  0  0  4           0  0  0
    1.7676   -2.5213   -0.0019 C   0  0  0  0  0  4           0  0  0
    2.5159   -3.4005   -0.9993 C   0  0  0  0  0  4           0  0  0
    1.9885   -4.8320   -0.9807 C   0  0  0  0  0  4           0  0  0
    2.7314   -5.7120   -1.9734 C   0  0  0  0  0  4           0  0  0
  1  8  1  0     0  0
  2  9  1  0     0  0
  2 10  1  0     0  0
  3 23  2  0     0  0
  4 23  1  0     0  0
  5 24  1  0     0  0
  6 11  1  0     0  0
  6 12  1  0     0  0
  6 25  1  0     0  0
  7  8  1  0     0  0
  7 11  2  0     0  0
  8 12  2  0     0  0
  9 13  1  0     0  0
  9 16  2  0     0  0
 10 15  2  0     0  0
 10 17  1  0     0  0
 11 26  1  0     0  0
 12 24  1  0     0  0
 13 18  2  0     0  0
 13 23  1  0     0  0
 14 15  1  0     0  0
 14 19  2  0     0  0
 14 25  1  0     0  0
 16 21  1  0     0  0
 17 20  2  0     0  0
 18 22  1  0     0  0
 19 20  1  0     0  0
 21 22  2  0     0  0
 26 27  1  0     0  0
 27 28  1  0     0  0
 28 29  1  0     0  0
M  END
> <standard_type>
pIC50

> <# Confs.>
25

> <canonical_smiles>
ClC(N=C1CCCC)=C(CO)N1CC2=CC=CC(OC3=CC=CC=C3C(O)=O)=C2

> <standard_relation>
=

> <Publication_ID>
nan

> <predicted_activity_value>
7.3979400086720375

> <actual_activity_value>
6.3979400086720375

> <Compound>
12

> <standard_units>
nM

> hash
1572487227986651878

$$$$
11
XXILIB    08252103503D 0   0.00000     0.00000

 29 31  0     1  0            999 V2000
    5.0124    1.4761   -0.0112 Cl  0  0  0  0  0  1           0  0  0
    0.0216   -1.6877    4.6143 O   0  0  0  0  0  2           0  0  0
    2.5499   -1.6487    5.6055 O   0  0  0  0  0  2           0  0  0
    3.8526   -2.8977    4.1861 O   0  0  0  0  0  2           0  0  0
    1.6548    2.9199   -1.3286 O   0  0  0  0  0  2           0  0  0
    1.4518   -0.0000    0.0000 N   0  0  0  0  0  3           0  0  0
    3.5350   -0.7729   -0.0069 N   0  0  0  0  0  3           0  0  0
    3.5513    0.5972   -0.0012 C   0  0  0  0  0  4           0  0  0
    0.3171   -2.9778    4.2441 C   0  0  0  0  0  4           0  0  0
   -0.5381   -0.8680    3.6597 C   0  0  0  0  0  4           0  0  0
    2.2633   -1.1181   -0.0000 C   0  0  0  0  0  4           0  0  0
    2.2688    1.1136    0.0114 C   0  0  0  0  0  4           0  0  0
    1.6444   -3.4294    4.3185 C   0  0  0  0  0  4           0  0  0
   -0.5421    0.0000    1.3968 C   0  0  0  0  0  4           0  0  0
   -0.0034   -0.8538    2.3687 C   0  0  0  0  0  4           0  0  0
   -0.6821   -3.8226    3.7414 C   0  0  0  0  0  4           0  0  0
   -1.5879   -0.0179    4.0079 C   0  0  0  0  0  4           0  0  0
    1.9524   -4.7352    3.9112 C   0  0  0  0  0  4           0  0  0
   -1.6145    0.8353    1.7449 C   0  0  0  0  0  4           0  0  0
   -2.1291    0.8294    3.0439 C   0  0  0  0  0  4           0  0  0
   -0.3660   -5.1216    3.3458 C   0  0  0  0  0  4           0  0  0
    0.9475   -5.5775    3.4326 C   0  0  0  0  0  4           0  0  0
    2.7018   -2.5451    4.7969 C   0  0  0  0  0  4           0  0  0
    1.7894    2.5112    0.0246 C   0  0  0  0  0  4           0  0  0
    0.0000    0.0000    0.0000 C   0  0  0  0  0  4           0  0  0
    1.7676   -2.5213   -0.0019 C   0  0  0  0  0  4           0  0  0
    2.5159   -3.4005   -0.9993 C   0  0  0  0  0  4           0  0  0
    1.9885   -4.8320   -0.9807 C   0  0  0  0  0  4           0  0  0
    2.7314   -5.7120   -1.9734 C   0  0  0  0  0  4           0  0  0
  1  8  1  0     0  0
  2  9  1  0     0  0
  2 10  1  0     0  0
  3 23  2  0     0  0
  4 23  1  0     0  0
  5 24  1  0     0  0
  6 11  1  0     0  0
  6 12  1  0     0  0
  6 25  1  0     0  0
  7  8  1  0     0  0
  7 11  2  0     0  0
  8 12  2  0     0  0
  9 13  1  0     0  0
  9 16  2  0     0  0
 10 15  2  0     0  0
 10 17  1  0     0  0
 11 26  1  0     0  0
 12 24  1  0     0  0
 13 18  2  0     0  0
 13 23  1  0     0  0
 14 15  1  0     0  0
 14 19  2  0     0  0
 14 25  1  0     0  0
 16 21  1  0     0  0
 17 20  2  0     0  0
 18 22  1  0     0  0
 19 20  1  0     0  0
 21 22  2  0     0  0
 26 27  1  0     0  0
 27 28  1  0     0  0
 28 29  1  0     0  0
M  END
> <standard_type>
pIC50

> <# Confs.>
25

> <canonical_smiles>
ClC(N=C1CCCC)=C(CO)N1CC2=CC=CC(OC3=CC=CC=C3C(O)=O)=C2

> <standard_relation>
=

> <Publication_ID>
nan

> <predicted_activity_value>
7.3979400086720375

> <actual_activity_value>
6.3979400086720375

> <Compound>
12

> <standard_units>
nM

> hash
1572487227986651878

$$$$
11
XXILIB    08252103503D 0   0.00000     0.00000

 29 31  0     1  0            999 V2000
    5.0124   -1.4761    0.0112 Cl  0  0  0  0  0  1           0  0  0
    0.0216   -1.6877    4.6143 O   0  0  0  0  0  2           0  0  0
    0.2158   -4.3914    4.5609 O   0  0  0  0  0  2           0  0  0
    2.1445   -4.9241    3.4348 O   0  0  0  0  0  2           0  0  0
    1.6527   -2.8936   -1.3853 O   0  0  0  0  0  2           0  0  0
    1.4518    0.0000    0.0000 N   0  0  0  0  0  3           0  0  0
    3.5350    0.7729    0.0069 N   0  0  0  0  0  3           0  0  0
    3.5513   -0.5972    0.0012 C   0  0  0  0  0  4           0  0  0
    1.3928   -1.7081    4.7035 C   0  0  0  0  0  4           0  0  0
   -0.5381   -0.8680    3.6597 C   0  0  0  0  0  4           0  0  0
    2.2633    1.1181    0.0000 C   0  0  0  0  0  4           0  0  0
    2.2688   -1.1136   -0.0114 C   0  0  0  0  0  4           0  0  0
    2.0786   -2.9169    4.5040 C   0  0  0  0  0  4           0  0  0
   -0.5421    0.0000    1.3968 C   0  0  0  0  0  4           0  0  0
   -0.0034   -0.8538    2.3687 C   0  0  0  0  0  4           0  0  0
    2.1030   -0.5494    5.0468 C   0  0  0  0  0  4           0  0  0
   -1.5879   -0.0179    4.0079 C   0  0  0  0  0  4           0  0  0
    3.4751   -2.9458    4.6258 C   0  0  0  0  0  4           0  0  0
   -1.6145    0.8353    1.7449 C   0  0  0  0  0  4           0  0  0
   -2.1291    0.8294    3.0439 C   0  0  0  0  0  4           0  0  0
    3.4923   -0.5877    5.1584 C   0  0  0  0  0  4           0  0  0
    4.1767   -1.7823    4.9462 C   0  0  0  0  0  4           0  0  0
    1.3475   -4.1402    4.1910 C   0  0  0  0  0  4           0  0  0
    1.7894   -2.5112   -0.0246 C   0  0  0  0  0  4           0  0  0
    0.0000    0.0000    0.0000 C   0  0  0  0  0  4           0  0  0
    1.7676    2.5213    0.0019 C   0  0  0  0  0  4           0  0  0
    2.5159    3.4005    0.9993 C   0  0  0  0  0  4           0  0  0
    2.3675    2.8729    2.4232 C   0  0  0  0  0  4           0  0  0
    3.1118    3.7461    3.4208 C   0  0  0  0  0  4           0  0  0
  1  8  1  0     0  0
  2  9  1  0     0  0
  2 10  1  0     0  0
  3 23  2  0     0  0
  4 23  1  0     0  0
  5 24  1  0     0  0
  6 11  1  0     0  0
  6 12  1  0     0  0
  6 25  1  0     0  0
  7  8  1  0     0  0
  7 11  2  0     0  0
  8 12  2  0     0  0
  9 13  1  0     0  0
  9 16  2  0     0  0
 10 15  2  0     0  0
 10 17  1  0     0  0
 11 26  1  0     0  0
 12 24  1  0     0  0
 13 18  2  0     0  0
 13 23  1  0     0  0
 14 15  1  0     0  0
 14 19  2  0     0  0
 14 25  1  0     0  0
 16 21  1  0     0  0
 17 20  2  0     0  0
 18 22  1  0     0  0
 19 20  1  0     0  0
 21 22  2  0     0  0
 26 27  1  0     0  0
 27 28  1  0     0  0
 28 29  1  0     0  0
M  END
> <standard_type>
pIC50

> <# Confs.>
25

> <canonical_smiles>
ClC(N=C1CCCC)=C(CO)N1CC2=CC=CC(OC3=CC=CC=C3C(O)=O)=C2

> <standard_relation>
=

> <Publication_ID>
nan

> <predicted_activity_value>
7.3979400086720375

> <actual_activity_value>
6.3979400086720375

> <Compound>
12

> <standard_units>
nM

> hash
1572487227986651878

$$$$
11
XXILIB    08252103503D 0   0.00000     0.00000

 29 31  0     1  0            999 V2000
    5.0124   -1.4761    0.0112 Cl  0  0  0  0  0  1           0  0  0
    0.0216   -1.6877    4.6143 O   0  0  0  0  0  2           0  0  0
    2.5499   -1.6487    5.6055 O   0  0  0  0  0  2           0  0  0
    3.8526   -2.8977    4.1861 O   0  0  0  0  0  2           0  0  0
    1.6527   -2.8936   -1.3853 O   0  0  0  0  0  2           0  0  0
    1.4518   -0.0000   -0.0000 N   0  0  0  0  0  3           0  0  0
    3.5350    0.7729    0.0069 N   0  0  0  0  0  3           0  0  0
    3.5513   -0.5972    0.0012 C   0  0  0  0  0  4           0  0  0
    0.3171   -2.9778    4.2441 C   0  0  0  0  0  4           0  0  0
   -0.5381   -0.8680    3.6597 C   0  0  0  0  0  4           0  0  0
    2.2633    1.1181    0.0000 C   0  0  0  0  0  4           0  0  0
    2.2688   -1.1136   -0.0114 C   0  0  0  0  0  4           0  0  0
    1.6444   -3.4294    4.3185 C   0  0  0  0  0  4           0  0  0
   -0.5421    0.0000    1.3968 C   0  0  0  0  0  4           0  0  0
   -0.0034   -0.8538    2.3687 C   0  0  0  0  0  4           0  0  0
   -0.6821   -3.8226    3.7414 C   0  0  0  0  0  4           0  0  0
   -1.5879   -0.0179    4.0079 C   0  0  0  0  0  4           0  0  0
    1.9524   -4.7352    3.9112 C   0  0  0  0  0  4           0  0  0
   -1.6145    0.8353    1.7449 C   0  0  0  0  0  4           0  0  0
   -2.1291    0.8294    3.0439 C   0  0  0  0  0  4           0  0  0
   -0.3660   -5.1216    3.3458 C   0  0  0  0  0  4           0  0  0
    0.9475   -5.5775    3.4326 C   0  0  0  0  0  4           0  0  0
    2.7018   -2.5451    4.7969 C   0  0  0  0  0  4           0  0  0
    1.7894   -2.5112   -0.0246 C   0  0  0  0  0  4           0  0  0
    0.0000    0.0000    0.0000 C   0  0  0  0  0  4           0  0  0
    1.7676    2.5213    0.0019 C   0  0  0  0  0  4           0  0  0
    1.5724    3.0704   -1.4082 C   0  0  0  0  0  4           0  0  0
    1.0643    4.5087   -1.3773 C   0  0  0  0  0  4           0  0  0
    0.8682    5.0601   -2.7806 C   0  0  0  0  0  4           0  0  0
  1  8  1  0     0  0
  2  9  1  0     0  0
  2 10  1  0     0  0
  3 23  2  0     0  0
  4 23  1  0     0  0
  5 24  1  0     0  0
  6 11  1  0     0  0
  6 12  1  0     0  0
  6 25  1  0     0  0
  7  8  1  0     0  0
  7 11  2  0     0  0
  8 12  2  0     0  0
  9 13  1  0     0  0
  9 16  2  0     0  0
 10 15  2  0     0  0
 10 17  1  0     0  0
 11 26  1  0     0  0
 12 24  1  0     0  0
 13 18  2  0     0  0
 13 23  1  0     0  0
 14 15  1  0     0  0
 14 19  2  0     0  0
 14 25  1  0     0  0
 16 21  1  0     0  0
 17 20  2  0     0  0
 18 22  1  0     0  0
 19 20  1  0     0  0
 21 22  2  0     0  0
 26 27  1  0     0  0
 27 28  1  0     0  0
 28 29  1  0     0  0
M  END
> <standard_type>
pIC50

> <# Confs.>
25

> <canonical_smiles>
ClC(N=C1CCCC)=C(CO)N1CC2=CC=CC(OC3=CC=CC=C3C(O)=O)=C2

> <standard_relation>
=

> <Publication_ID>
nan

> <predicted_activity_value>
7.3979400086720375

> <actual_activity_value>
6.3979400086720375

> <Compound>
12

> <standard_units>
nM

> hash
1572487227986651878

$$$$
11
XXILIB    08252103503D 0   0.00000     0.00000

 29 31  0     1  0            999 V2000
    5.0124    1.4761   -0.0112 Cl  0  0  0  0  0  1           0  0  0
   -1.5549    2.3881    4.0025 O   0  0  0  0  0  2           0  0  0
   -2.9438    4.1322    1.9728 O   0  0  0  0  0  2           0  0  0
   -2.9167    5.8553    3.4901 O   0  0  0  0  0  2           0  0  0
    0.7468    2.6048   -0.9349 O   0  0  0  0  0  2           0  0  0
    1.4518    0.0000   -0.0000 N   0  0  0  0  0  3           0  0  0
    3.5350   -0.7729   -0.0069 N   0  0  0  0  0  3           0  0  0
    3.5513    0.5972   -0.0012 C   0  0  0  0  0  4           0  0  0
   -0.6342    3.4004    3.8749 C   0  0  0  0  0  4           0  0  0
   -1.2748    1.1953    3.3737 C   0  0  0  0  0  4           0  0  0
    2.2633   -1.1181    0.0000 C   0  0  0  0  0  4           0  0  0
    2.2688    1.1136    0.0114 C   0  0  0  0  0  4           0  0  0
   -1.0213    4.6137    3.2840 C   0  0  0  0  0  4           0  0  0
   -0.5421    0.0000    1.3968 C   0  0  0  0  0  4           0  0  0
   -0.7994    1.2075    2.0598 C   0  0  0  0  0  4           0  0  0
    0.6954    3.2106    4.2760 C   0  0  0  0  0  4           0  0  0
   -1.5280   -0.0087    4.0311 C   0  0  0  0  0  4           0  0  0
   -0.0749    5.6360    3.1244 C   0  0  0  0  0  4           0  0  0
   -0.7745   -1.2085    2.0709 C   0  0  0  0  0  4           0  0  0
   -1.2697   -1.2112    3.3774 C   0  0  0  0  0  4           0  0  0
    1.6267    4.2362    4.1192 C   0  0  0  0  0  4           0  0  0
    1.2419    5.4466    3.5469 C   0  0  0  0  0  4           0  0  0
   -2.3911    4.8079    2.8203 C   0  0  0  0  0  4           0  0  0
    1.7894    2.5112    0.0246 C   0  0  0  0  0  4           0  0  0
    0.0000    0.0000    0.0000 C   0  0  0  0  0  4           0  0  0
    1.7676   -2.5213   -0.0019 C   0  0  0  0  0  4           0  0  0
    2.5135   -3.4023    0.9959 C   0  0  0  0  0  4           0  0  0
    1.9861   -4.8337    0.9734 C   0  0  0  0  0  4           0  0  0
    2.7266   -5.7155    1.9663 C   0  0  0  0  0  4           0  0  0
  1  8  1  0     0  0
  2  9  1  0     0  0
  2 10  1  0     0  0
  3 23  2  0     0  0
  4 23  1  0     0  0
  5 24  1  0     0  0
  6 11  1  0     0  0
  6 12  1  0     0  0
  6 25  1  0     0  0
  7  8  1  0     0  0
  7 11  2  0     0  0
  8 12  2  0     0  0
  9 13  1  0     0  0
  9 16  2  0     0  0
 10 15  2  0     0  0
 10 17  1  0     0  0
 11 26  1  0     0  0
 12 24  1  0     0  0
 13 18  2  0     0  0
 13 23  1  0     0  0
 14 15  1  0     0  0
 14 19  2  0     0  0
 14 25  1  0     0  0
 16 21  1  0     0  0
 17 20  2  0     0  0
 18 22  1  0     0  0
 19 20  1  0     0  0
 21 22  2  0     0  0
 26 27  1  0     0  0
 27 28  1  0     0  0
 28 29  1  0     0  0
M  END
> <standard_type>
pIC50

> <# Confs.>
25

> <canonical_smiles>
ClC(N=C1CCCC)=C(CO)N1CC2=CC=CC(OC3=CC=CC=C3C(O)=O)=C2

> <standard_relation>
=

> <Publication_ID>
nan

> <predicted_activity_value>
7.3979400086720375

> <actual_activity_value>
6.3979400086720375

> <Compound>
12

> <standard_units>
nM

> hash
1572487227986651878

$$$$
0
XXILIB    08252103503D 0   0.00000     0.00000

 31 34  0     1  0            999 V2000
    5.0450    1.1931    0.7581 Cl  0  0  0  0  0  1           0  0  0
    1.2178    2.8181    1.4807 O   0  0  0  0  0  2           0  0  0
    2.5112    1.6312    2.9118 O   0  0  0  0  0  2           0  0  0
    1.9642    1.5678    5.9658 N   0  0  0  0  0  3           0  0  0
    2.1994    0.5462    6.7781 N   0  0  0  0  0  3           0  0  0
    0.6358    1.5747    5.7919 N   0  0  0  0  0  3           0  0  0
    1.0307   -0.0938    7.1205 N   0  0  0  0  0  3           0  0  0
    1.4535    0.0000   -0.0000 N   0  0  0  0  0  3           0  0  0
    3.5186   -0.4990   -0.6510 N   0  0  0  0  0  3           0  0  0
    3.5558    0.5136    0.2684 C   0  0  0  0  0  4           0  0  0
    0.0630    0.5547    6.5027 C   0  0  0  0  0  4           0  0  0
    2.2476   -0.8013   -0.8013 C   0  0  0  0  0  4           0  0  0
    2.2852    0.8472    0.7202 C   0  0  0  0  0  4           0  0  0
   -1.3532    0.2817    6.5318 C   0  0  0  0  0  4           0  0  0
   -2.1218   -0.0314    5.3814 C   0  0  0  0  0  4           0  0  0
   -1.5873   -0.0234    4.0250 C   0  0  0  0  0  4           0  0  0
   -0.5425    0.0000    1.3969 C   0  0  0  0  0  4           0  0  0
   -1.9880    0.3165    7.7901 C   0  0  0  0  0  4           0  0  0
   -3.4920   -0.3306    5.5519 C   0  0  0  0  0  4           0  0  0
   -0.5214   -0.8627    3.6687 C   0  0  0  0  0  4           0  0  0
   -2.1271    0.8236    3.0455 C   0  0  0  0  0  4           0  0  0
   -0.0060   -0.8523    2.3697 C   0  0  0  0  0  4           0  0  0
   -1.6124    0.8333    1.7459 C   0  0  0  0  0  4           0  0  0
   -3.3449    0.0256    7.9271 C   0  0  0  0  0  4           0  0  0
   -4.0963   -0.3044    6.8084 C   0  0  0  0  0  4           0  0  0
    1.9418    1.8525    1.6930 C   0  0  0  0  0  4           0  0  0
    0.0000    0.0000    0.0000 C   0  0  0  0  0  4           0  0  0
    1.7418   -1.8605   -1.7180 C   0  0  0  0  0  4           0  0  0
    1.6401   -3.2203   -1.0337 C   0  0  0  0  0  4           0  0  0
    1.1248   -4.3438   -1.9340 C   0  0  0  0  0  4           0  0  0
    1.0497   -5.6658   -1.1877 C   0  0  0  0  0  4           0  0  0
  1 10  1  0     0  0
  2 26  2  0     0  0
  3 26  1  0     0  0
  4  5  2  0     0  0
  4  6  1  0     0  0
  5  7  1  0     0  0
  6 11  1  0     0  0
  7 11  2  0     0  0
  8 12  1  0     0  0
  8 13  1  0     0  0
  8 27  1  0     0  0
  9 10  1  0     0  0
  9 12  2  0     0  0
 10 13  2  0     0  0
 11 14  1  0     0  0
 12 28  1  0     0  0
 13 26  1  0     0  0
 14 15  1  0     0  0
 14 18  2  0     0  0
 15 16  1  0     0  0
 15 19  2  0     0  0
 16 20  2  0     0  0
 16 21  1  0     0  0
 17 22  2  0     0  0
 17 23  1  0     0  0
 17 27  1  0     0  0
 18 24  1  0     0  0
 19 25  1  0     0  0
 20 22  1  0     0  0
 21 23  2  0     0  0
 24 25  2  0     0  0
 28 29  1  0     0  0
 29 30  1  0     0  0
 30 31  1  0     0  0
M  END
> <standard_type>
pIC50

> <# Confs.>
25

> <canonical_smiles>
ClC(N=C1CCCC)=C(C(O)=O)N1CC2=CC=C(C3=CC=CC=C3C4=NN=NN4)C=C2

> <standard_relation>
=

> <Publication_ID>
Krovat_2003

> <predicted_activity_value>
8.130768280269024

> <actual_activity_value>
8.886056647693163

> <Compound>
1

> <standard_units>
nM

> hash
1800136262960392497

$$$$
0
XXILIB    08252103503D 0   0.00000     0.00000

 31 34  0     1  0            999 V2000
    5.0450    1.1931    0.7581 Cl  0  0  0  0  0  1           0  0  0
    1.2178    2.8181    1.4807 O   0  0  0  0  0  2           0  0  0
    2.5112    1.6312    2.9118 O   0  0  0  0  0  2           0  0  0
    1.9642    1.5678    5.9658 N   0  0  0  0  0  3           0  0  0
    2.1994    0.5462    6.7781 N   0  0  0  0  0  3           0  0  0
    0.6358    1.5747    5.7919 N   0  0  0  0  0  3           0  0  0
    1.0307   -0.0938    7.1205 N   0  0  0  0  0  3           0  0  0
    1.4535    0.0000   -0.0000 N   0  0  0  0  0  3           0  0  0
    3.5186   -0.4990   -0.6510 N   0  0  0  0  0  3           0  0  0
    3.5558    0.5136    0.2684 C   0  0  0  0  0  4           0  0  0
    0.0630    0.5547    6.5027 C   0  0  0  0  0  4           0  0  0
    2.2476   -0.8013   -0.8013 C   0  0  0  0  0  4           0  0  0
    2.2852    0.8472    0.7202 C   0  0  0  0  0  4           0  0  0
   -1.3532    0.2817    6.5318 C   0  0  0  0  0  4           0  0  0
   -2.1218   -0.0314    5.3814 C   0  0  0  0  0  4           0  0  0
   -1.5873   -0.0234    4.0250 C   0  0  0  0  0  4           0  0  0
   -0.5425    0.0000    1.3969 C   0  0  0  0  0  4           0  0  0
   -1.9880    0.3165    7.7901 C   0  0  0  0  0  4           0  0  0
   -3.4920   -0.3306    5.5519 C   0  0  0  0  0  4           0  0  0
   -0.5214   -0.8627    3.6687 C   0  0  0  0  0  4           0  0  0
   -2.1271    0.8236    3.0455 C   0  0  0  0  0  4           0  0  0
   -0.0060   -0.8523    2.3697 C   0  0  0  0  0  4           0  0  0
   -1.6124    0.8333    1.7459 C   0  0  0  0  0  4           0  0  0
   -3.3449    0.0256    7.9271 C   0  0  0  0  0  4           0  0  0
   -4.0963   -0.3044    6.8084 C   0  0  0  0  0  4           0  0  0
    1.9418    1.8525    1.6930 C   0  0  0  0  0  4           0  0  0
    0.0000    0.0000    0.0000 C   0  0  0  0  0  4           0  0  0
    1.7418   -1.8605   -1.7180 C   0  0  0  0  0  4           0  0  0
    1.4493   -1.3262   -3.1168 C   0  0  0  0  0  4           0  0  0
    0.9266   -2.3764   -4.0979 C   0  0  0  0  0  4           0  0  0
    0.6577   -1.7745   -5.4674 C   0  0  0  0  0  4           0  0  0
  1 10  1  0     0  0
  2 26  2  0     0  0
  3 26  1  0     0  0
  4  5  2  0     0  0
  4  6  1  0     0  0
  5  7  1  0     0  0
  6 11  1  0     0  0
  7 11  2  0     0  0
  8 12  1  0     0  0
  8 13  1  0     0  0
  8 27  1  0     0  0
  9 10  1  0     0  0
  9 12  2  0     0  0
 10 13  2  0     0  0
 11 14  1  0     0  0
 12 28  1  0     0  0
 13 26  1  0     0  0
 14 15  1  0     0  0
 14 18  2  0     0  0
 15 16  1  0     0  0
 15 19  2  0     0  0
 16 20  2  0     0  0
 16 21  1  0     0  0
 17 22  2  0     0  0
 17 23  1  0     0  0
 17 27  1  0     0  0
 18 24  1  0     0  0
 19 25  1  0     0  0
 20 22  1  0     0  0
 21 23  2  0     0  0
 24 25  2  0     0  0
 28 29  1  0     0  0
 29 30  1  0     0  0
 30 31  1  0     0  0
M  END
> <standard_type>
pIC50

> <# Confs.>
25

> <canonical_smiles>
ClC(N=C1CCCC)=C(C(O)=O)N1CC2=CC=C(C3=CC=CC=C3C4=NN=NN4)C=C2

> <standard_relation>
=

> <Publication_ID>
Krovat_2003

> <predicted_activity_value>
8.130768280269024

> <actual_activity_value>
8.886056647693163

> <Compound>
1

> <standard_units>
nM

> hash
1800136262960392497

$$$$
0
XXILIB    08252103503D 0   0.00000     0.00000

 31 34  0     1  0            999 V2000
    5.0450    1.3797   -0.3076 Cl  0  0  0  0  0  1           0  0  0
    1.2178    3.0397   -0.9457 O   0  0  0  0  0  2           0  0  0
    2.5112    3.2124    0.9055 O   0  0  0  0  0  2           0  0  0
    2.0003    1.5437    5.7018 N   0  0  0  0  0  3           0  0  0
    1.6974    2.4006    6.6676 N   0  0  0  0  0  3           0  0  0
    0.9002    0.7956    5.5434 N   0  0  0  0  0  3           0  0  0
    0.4141    2.2015    7.1220 N   0  0  0  0  0  3           0  0  0
    1.4535   -0.0000   -0.0000 N   0  0  0  0  0  3           0  0  0
    3.5186   -0.8131   -0.1075 N   0  0  0  0  0  3           0  0  0
    3.5558    0.5529   -0.1734 C   0  0  0  0  0  4           0  0  0
   -0.0741    1.2012    6.4150 C   0  0  0  0  0  4           0  0  0
    2.2476   -1.1332   -0.0000 C   0  0  0  0  0  4           0  0  0
    2.2852    1.1083   -0.0898 C   0  0  0  0  0  4           0  0  0
   -1.3835    0.6024    6.5038 C   0  0  0  0  0  4           0  0  0
   -2.0539    0.0012    5.4078 C   0  0  0  0  0  4           0  0  0
   -1.5361    0.0006    4.0448 C   0  0  0  0  0  4           0  0  0
   -0.5425    0.0000    1.3969 C   0  0  0  0  0  4           0  0  0
   -2.0089    0.6106    7.7673 C   0  0  0  0  0  4           0  0  0
   -3.3124   -0.5978    5.6388 C   0  0  0  0  0  4           0  0  0
   -1.2930    1.2055    3.3691 C   0  0  0  0  0  4           0  0  0
   -1.2692   -1.2048    3.3787 C   0  0  0  0  0  4           0  0  0
   -0.8005    1.2053    2.0611 C   0  0  0  0  0  4           0  0  0
   -0.7758   -1.2051    2.0708 C   0  0  0  0  0  4           0  0  0
   -3.2564    0.0194    7.9639 C   0  0  0  0  0  4           0  0  0
   -3.9060   -0.5908    6.9006 C   0  0  0  0  0  4           0  0  0
    1.9418    2.5071   -0.1127 C   0  0  0  0  0  4           0  0  0
    0.0000    0.0000    0.0000 C   0  0  0  0  0  4           0  0  0
    1.7418   -2.5304    0.1007 C   0  0  0  0  0  4           0  0  0
    2.4132   -3.4644   -0.9015 C   0  0  0  0  0  4           0  0  0
    2.2154   -3.0681   -2.3652 C   0  0  0  0  0  4           0  0  0
    2.9097   -4.0406   -3.3045 C   0  0  0  0  0  4           0  0  0
  1 10  1  0     0  0
  2 26  2  0     0  0
  3 26  1  0     0  0
  4  5  2  0     0  0
  4  6  1  0     0  0
  5  7  1  0     0  0
  6 11  1  0     0  0
  7 11  2  0     0  0
  8 12  1  0     0  0
  8 13  1  0     0  0
  8 27  1  0     0  0
  9 10  1  0     0  0
  9 12  2  0     0  0
 10 13  2  0     0  0
 11 14  1  0     0  0
 12 28  1  0     0  0
 13 26  1  0     0  0
 14 15  1  0     0  0
 14 18  2  0     0  0
 15 16  1  0     0  0
 15 19  2  0     0  0
 16 20  2  0     0  0
 16 21  1  0     0  0
 17 22  2  0     0  0
 17 23  1  0     0  0
 17 27  1  0     0  0
 18 24  1  0     0  0
 19 25  1  0     0  0
 20 22  1  0     0  0
 21 23  2  0     0  0
 24 25  2  0     0  0
 28 29  1  0     0  0
 29 30  1  0     0  0
 30 31  1  0     0  0
M  END
> <standard_type>
pIC50

> <# Confs.>
25

> <canonical_smiles>
ClC(N=C1CCCC)=C(C(O)=O)N1CC2=CC=C(C3=CC=CC=C3C4=NN=NN4)C=C2

> <standard_relation>
=

> <Publication_ID>
Krovat_2003

> <predicted_activity_value>
8.130768280269024

> <actual_activity_value>
8.886056647693163

> <Compound>
1

> <standard_units>
nM

> hash
1800136262960392497

$$$$
0
XXILIB    08252103503D 0   0.00000     0.00000

 31 34  0     1  0            999 V2000
    5.0450    1.1931    0.7581 Cl  0  0  0  0  0  1           0  0  0
    1.2178    2.8181    1.4807 O   0  0  0  0  0  2           0  0  0
    2.5112    1.6312    2.9118 O   0  0  0  0  0  2           0  0  0
    1.9642    1.5678    5.9658 N   0  0  0  0  0  3           0  0  0
    2.1994    0.5462    6.7781 N   0  0  0  0  0  3           0  0  0
    0.6358    1.5747    5.7919 N   0  0  0  0  0  3           0  0  0
    1.0307   -0.0938    7.1205 N   0  0  0  0  0  3           0  0  0
    1.4535    0.0000    0.0000 N   0  0  0  0  0  3           0  0  0
    3.5186   -0.4990   -0.6510 N   0  0  0  0  0  3           0  0  0
    3.5558    0.5136    0.2684 C   0  0  0  0  0  4           0  0  0
    0.0630    0.5547    6.5027 C   0  0  0  0  0  4           0  0  0
    2.2476   -0.8013   -0.8013 C   0  0  0  0  0  4           0  0  0
    2.2852    0.8472    0.7202 C   0  0  0  0  0  4           0  0  0
   -1.3532    0.2817    6.5318 C   0  0  0  0  0  4           0  0  0
   -2.1218   -0.0314    5.3814 C   0  0  0  0  0  4           0  0  0
   -1.5873   -0.0234    4.0250 C   0  0  0  0  0  4           0  0  0
   -0.5425    0.0000    1.3969 C   0  0  0  0  0  4           0  0  0
   -1.9880    0.3165    7.7901 C   0  0  0  0  0  4           0  0  0
   -3.4920   -0.3306    5.5519 C   0  0  0  0  0  4           0  0  0
   -0.5214   -0.8627    3.6687 C   0  0  0  0  0  4           0  0  0
   -2.1271    0.8236    3.0455 C   0  0  0  0  0  4           0  0  0
   -0.0060   -0.8523    2.3697 C   0  0  0  0  0  4           0  0  0
   -1.6124    0.8333    1.7459 C   0  0  0  0  0  4           0  0  0
   -3.3449    0.0256    7.9271 C   0  0  0  0  0  4           0  0  0
   -4.0963   -0.3044    6.8084 C   0  0  0  0  0  4           0  0  0
    1.9418    1.8525    1.6930 C   0  0  0  0  0  4           0  0  0
    0.0000    0.0000    0.0000 C   0  0  0  0  0  4           0  0  0
    1.7418   -1.8605   -1.7180 C   0  0  0  0  0  4           0  0  0
    2.8684   -2.5682   -2.4647 C   0  0  0  0  0  4           0  0  0
    2.4006   -3.6665   -3.4205 C   0  0  0  0  0  4           0  0  0
    3.5732   -4.3263   -4.1277 C   0  0  0  0  0  4           0  0  0
  1 10  1  0     0  0
  2 26  2  0     0  0
  3 26  1  0     0  0
  4  5  2  0     0  0
  4  6  1  0     0  0
  5  7  1  0     0  0
  6 11  1  0     0  0
  7 11  2  0     0  0
  8 12  1  0     0  0
  8 13  1  0     0  0
  8 27  1  0     0  0
  9 10  1  0     0  0
  9 12  2  0     0  0
 10 13  2  0     0  0
 11 14  1  0     0  0
 12 28  1  0     0  0
 13 26  1  0     0  0
 14 15  1  0     0  0
 14 18  2  0     0  0
 15 16  1  0     0  0
 15 19  2  0     0  0
 16 20  2  0     0  0
 16 21  1  0     0  0
 17 22  2  0     0  0
 17 23  1  0     0  0
 17 27  1  0     0  0
 18 24  1  0     0  0
 19 25  1  0     0  0
 20 22  1  0     0  0
 21 23  2  0     0  0
 24 25  2  0     0  0
 28 29  1  0     0  0
 29 30  1  0     0  0
 30 31  1  0     0  0
M  END
> <standard_type>
pIC50

> <# Confs.>
25

> <canonical_smiles>
ClC(N=C1CCCC)=C(C(O)=O)N1CC2=CC=C(C3=CC=CC=C3C4=NN=NN4)C=C2

> <standard_relation>
=

> <Publication_ID>
Krovat_2003

> <predicted_activity_value>
8.130768280269024

> <actual_activity_value>
8.886056647693163

> <Compound>
1

> <standard_units>
nM

> hash
1800136262960392497

$$$$
0
XXILIB    08252103503D 0   0.00000     0.00000

 31 34  0     1  0            999 V2000
    5.0450    1.1931    0.7581 Cl  0  0  0  0  0  1           0  0  0
    1.2178    2.8181    1.4807 O   0  0  0  0  0  2           0  0  0
    2.5112    1.6312    2.9118 O   0  0  0  0  0  2           0  0  0
    1.9642    1.5678    5.9658 N   0  0  0  0  0  3           0  0  0
    2.1994    0.5462    6.7781 N   0  0  0  0  0  3           0  0  0
    0.6358    1.5747    5.7919 N   0  0  0  0  0  3           0  0  0
    1.0307   -0.0938    7.1205 N   0  0  0  0  0  3           0  0  0
    1.4535    0.0000   -0.0000 N   0  0  0  0  0  3           0  0  0
    3.5186   -0.4990   -0.6510 N   0  0  0  0  0  3           0  0  0
    3.5558    0.5136    0.2684 C   0  0  0  0  0  4           0  0  0
    0.0630    0.5547    6.5027 C   0  0  0  0  0  4           0  0  0
    2.2476   -0.8013   -0.8013 C   0  0  0  0  0  4           0  0  0
    2.2852    0.8472    0.7202 C   0  0  0  0  0  4           0  0  0
   -1.3532    0.2817    6.5318 C   0  0  0  0  0  4           0  0  0
   -2.1218   -0.0314    5.3814 C   0  0  0  0  0  4           0  0  0
   -1.5873   -0.0234    4.0250 C   0  0  0  0  0  4           0  0  0
   -0.5425    0.0000    1.3969 C   0  0  0  0  0  4           0  0  0
   -1.9880    0.3165    7.7901 C   0  0  0  0  0  4           0  0  0
   -3.4920   -0.3306    5.5519 C   0  0  0  0  0  4           0  0  0
   -0.5214   -0.8627    3.6687 C   0  0  0  0  0  4           0  0  0
   -2.1271    0.8236    3.0455 C   0  0  0  0  0  4           0  0  0
   -0.0060   -0.8523    2.3697 C   0  0  0  0  0  4           0  0  0
   -1.6124    0.8333    1.7459 C   0  0  0  0  0  4           0  0  0
   -3.3449    0.0256    7.9271 C   0  0  0  0  0  4           0  0  0
   -4.0963   -0.3044    6.8084 C   0  0  0  0  0  4           0  0  0
    1.9418    1.8525    1.6930 C   0  0  0  0  0  4           0  0  0
    0.0000    0.0000    0.0000 C   0  0  0  0  0  4           0  0  0
    1.7418   -1.8605   -1.7180 C   0  0  0  0  0  4           0  0  0
    1.4493   -1.3262   -3.1168 C   0  0  0  0  0  4           0  0  0
    2.6603   -0.7213   -3.8282 C   0  0  0  0  0  4           0  0  0
    2.2957   -0.2109   -5.2127 C   0  0  0  0  0  4           0  0  0
  1 10  1  0     0  0
  2 26  2  0     0  0
  3 26  1  0     0  0
  4  5  2  0     0  0
  4  6  1  0     0  0
  5  7  1  0     0  0
  6 11  1  0     0  0
  7 11  2  0     0  0
  8 12  1  0     0  0
  8 13  1  0     0  0
  8 27  1  0     0  0
  9 10  1  0     0  0
  9 12  2  0     0  0
 10 13  2  0     0  0
 11 14  1  0     0  0
 12 28  1  0     0  0
 13 26  1  0     0  0
 14 15  1  0     0  0
 14 18  2  0     0  0
 15 16  1  0     0  0
 15 19  2  0     0  0
 16 20  2  0     0  0
 16 21  1  0     0  0
 17 22  2  0     0  0
 17 23  1  0     0  0
 17 27  1  0     0  0
 18 24  1  0     0  0
 19 25  1  0     0  0
 20 22  1  0     0  0
 21 23  2  0     0  0
 24 25  2  0     0  0
 28 29  1  0     0  0
 29 30  1  0     0  0
 30 31  1  0     0  0
M  END
> <standard_type>
pIC50

> <# Confs.>
25

> <canonical_smiles>
ClC(N=C1CCCC)=C(C(O)=O)N1CC2=CC=C(C3=CC=CC=C3C4=NN=NN4)C=C2

> <standard_relation>
=

> <Publication_ID>
Krovat_2003

> <predicted_activity_value>
8.130768280269024

> <actual_activity_value>
8.886056647693163

> <Compound>
1

> <standard_units>
nM

> hash
1800136262960392497

$$$$
0
XXILIB    08252103503D 0   0.00000     0.00000

 31 34  0     1  0            999 V2000
    5.0450    1.3797   -0.3076 Cl  0  0  0  0  0  1           0  0  0
    1.2178    3.0397   -0.9457 O   0  0  0  0  0  2           0  0  0
    2.5112    3.2124    0.9055 O   0  0  0  0  0  2           0  0  0
    2.0003    1.5437    5.7018 N   0  0  0  0  0  3           0  0  0
    1.6974    2.4006    6.6676 N   0  0  0  0  0  3           0  0  0
    0.9002    0.7956    5.5434 N   0  0  0  0  0  3           0  0  0
    0.4141    2.2015    7.1220 N   0  0  0  0  0  3           0  0  0
    1.4535   -0.0000   -0.0000 N   0  0  0  0  0  3           0  0  0
    3.5186   -0.8131   -0.1075 N   0  0  0  0  0  3           0  0  0
    3.5558    0.5529   -0.1734 C   0  0  0  0  0  4           0  0  0
   -0.0741    1.2012    6.4150 C   0  0  0  0  0  4           0  0  0
    2.2476   -1.1332   -0.0000 C   0  0  0  0  0  4           0  0  0
    2.2852    1.1083   -0.0898 C   0  0  0  0  0  4           0  0  0
   -1.3835    0.6024    6.5038 C   0  0  0  0  0  4           0  0  0
   -2.0539    0.0012    5.4078 C   0  0  0  0  0  4           0  0  0
   -1.5361    0.0006    4.0448 C   0  0  0  0  0  4           0  0  0
   -0.5425    0.0000    1.3969 C   0  0  0  0  0  4           0  0  0
   -2.0089    0.6106    7.7673 C   0  0  0  0  0  4           0  0  0
   -3.3124   -0.5978    5.6388 C   0  0  0  0  0  4           0  0  0
   -1.2930    1.2055    3.3691 C   0  0  0  0  0  4           0  0  0
   -1.2692   -1.2048    3.3787 C   0  0  0  0  0  4           0  0  0
   -0.8005    1.2053    2.0611 C   0  0  0  0  0  4           0  0  0
   -0.7758   -1.2051    2.0708 C   0  0  0  0  0  4           0  0  0
   -3.2564    0.0194    7.9639 C   0  0  0  0  0  4           0  0  0
   -3.9060   -0.5908    6.9006 C   0  0  0  0  0  4           0  0  0
    1.9418    2.5071   -0.1127 C   0  0  0  0  0  4           0  0  0
    0.0000    0.0000    0.0000 C   0  0  0  0  0  4           0  0  0
    1.7418   -2.5304    0.1007 C   0  0  0  0  0  4           0  0  0
    2.4132   -3.4644   -0.9015 C   0  0  0  0  0  4           0  0  0
    1.9278   -4.9131   -0.8385 C   0  0  0  0  0  4           0  0  0
    2.6381   -5.7837   -1.8622 C   0  0  0  0  0  4           0  0  0
  1 10  1  0     0  0
  2 26  2  0     0  0
  3 26  1  0     0  0
  4  5  2  0     0  0
  4  6  1  0     0  0
  5  7  1  0     0  0
  6 11  1  0     0  0
  7 11  2  0     0  0
  8 12  1  0     0  0
  8 13  1  0     0  0
  8 27  1  0     0  0
  9 10  1  0     0  0
  9 12  2  0     0  0
 10 13  2  0     0  0
 11 14  1  0     0  0
 12 28  1  0     0  0
 13 26  1  0     0  0
 14 15  1  0     0  0
 14 18  2  0     0  0
 15 16  1  0     0  0
 15 19  2  0     0  0
 16 20  2  0     0  0
 16 21  1  0     0  0
 17 22  2  0     0  0
 17 23  1  0     0  0
 17 27  1  0     0  0
 18 24  1  0     0  0
 19 25  1  0     0  0
 20 22  1  0     0  0
 21 23  2  0     0  0
 24 25  2  0     0  0
 28 29  1  0     0  0
 29 30  1  0     0  0
 30 31  1  0     0  0
M  END
> <standard_type>
pIC50

> <# Confs.>
25

> <canonical_smiles>
ClC(N=C1CCCC)=C(C(O)=O)N1CC2=CC=C(C3=CC=CC=C3C4=NN=NN4)C=C2

> <standard_relation>
=

> <Publication_ID>
Krovat_2003

> <predicted_activity_value>
8.130768280269024

> <actual_activity_value>
8.886056647693163

> <Compound>
1

> <standard_units>
nM

> hash
1800136262960392497

$$$$
0
XXILIB    08252103503D 0   0.00000     0.00000

 31 34  0     1  0            999 V2000
    5.0450   -1.3797    0.3076 Cl  0  0  0  0  0  1           0  0  0
    1.3593   -3.1028   -0.7858 O   0  0  0  0  0  2           0  0  0
    2.3325   -3.1330    1.2591 O   0  0  0  0  0  2           0  0  0
    2.0003    1.5437    5.7018 N   0  0  0  0  0  3           0  0  0
    1.6974    2.4006    6.6676 N   0  0  0  0  0  3           0  0  0
    0.9002    0.7956    5.5434 N   0  0  0  0  0  3           0  0  0
    0.4141    2.2015    7.1220 N   0  0  0  0  0  3           0  0  0
    1.4535   -0.0000   -0.0000 N   0  0  0  0  0  3           0  0  0
    3.5186    0.8131    0.1075 N   0  0  0  0  0  3           0  0  0
    3.5558   -0.5529    0.1734 C   0  0  0  0  0  4           0  0  0
   -0.0741    1.2012    6.4150 C   0  0  0  0  0  4           0  0  0
    2.2476    1.1332    0.0000 C   0  0  0  0  0  4           0  0  0
    2.2852   -1.1083    0.0898 C   0  0  0  0  0  4           0  0  0
   -1.3835    0.6024    6.5038 C   0  0  0  0  0  4           0  0  0
   -2.0539    0.0012    5.4078 C   0  0  0  0  0  4           0  0  0
   -1.5361    0.0006    4.0448 C   0  0  0  0  0  4           0  0  0
   -0.5425    0.0000    1.3969 C   0  0  0  0  0  4           0  0  0
   -2.0089    0.6106    7.7673 C   0  0  0  0  0  4           0  0  0
   -3.3124   -0.5978    5.6388 C   0  0  0  0  0  4           0  0  0
   -1.2930    1.2055    3.3691 C   0  0  0  0  0  4           0  0  0
   -1.2692   -1.2048    3.3787 C   0  0  0  0  0  4           0  0  0
   -0.8005    1.2053    2.0611 C   0  0  0  0  0  4           0  0  0
   -0.7758   -1.2051    2.0708 C   0  0  0  0  0  4           0  0  0
   -3.2564    0.0194    7.9639 C   0  0  0  0  0  4           0  0  0
   -3.9060   -0.5908    6.9006 C   0  0  0  0  0  4           0  0  0
    1.9418   -2.5071    0.1127 C   0  0  0  0  0  4           0  0  0
    0.0000    0.0000    0.0000 C   0  0  0  0  0  4           0  0  0
    1.7418    2.5304   -0.1007 C   0  0  0  0  0  4           0  0  0
    2.5481    3.3698   -1.0870 C   0  0  0  0  0  4           0  0  0
    2.5468    2.8358   -2.5200 C   0  0  0  0  0  4           0  0  0
    3.3676    3.7198   -3.4448 C   0  0  0  0  0  4           0  0  0
  1 10  1  0     0  0
  2 26  2  0     0  0
  3 26  1  0     0  0
  4  5  2  0     0  0
  4  6  1  0     0  0
  5  7  1  0     0  0
  6 11  1  0     0  0
  7 11  2  0     0  0
  8 12  1  0     0  0
  8 13  1  0     0  0
  8 27  1  0     0  0
  9 10  1  0     0  0
  9 12  2  0     0  0
 10 13  2  0     0  0
 11 14  1  0     0  0
 12 28  1  0     0  0
 13 26  1  0     0  0
 14 15  1  0     0  0
 14 18  2  0     0  0
 15 16  1  0     0  0
 15 19  2  0     0  0
 16 20  2  0     0  0
 16 21  1  0     0  0
 17 22  2  0     0  0
 17 23  1  0     0  0
 17 27  1  0     0  0
 18 24  1  0     0  0
 19 25  1  0     0  0
 20 22  1  0     0  0
 21 23  2  0     0  0
 24 25  2  0     0  0
 28 29  1  0     0  0
 29 30  1  0     0  0
 30 31  1  0     0  0
M  END
> <standard_type>
pIC50

> <# Confs.>
25

> <canonical_smiles>
ClC(N=C1CCCC)=C(C(O)=O)N1CC2=CC=C(C3=CC=CC=C3C4=NN=NN4)C=C2

> <standard_relation>
=

> <Publication_ID>
Krovat_2003

> <predicted_activity_value>
8.130768280269024

> <actual_activity_value>
8.886056647693163

> <Compound>
1

> <standard_units>
nM

> hash
1800136262960392497

$$$$
0
XXILIB    08252103503D 0   0.00000     0.00000

 31 34  0     1  0            999 V2000
    5.0450   -1.3797    0.3076 Cl  0  0  0  0  0  1           0  0  0
    1.3593   -3.1028   -0.7858 O   0  0  0  0  0  2           0  0  0
    2.3325   -3.1330    1.2591 O   0  0  0  0  0  2           0  0  0
    2.0003    1.5437    5.7018 N   0  0  0  0  0  3           0  0  0
    1.6974    2.4006    6.6676 N   0  0  0  0  0  3           0  0  0
    0.9002    0.7956    5.5434 N   0  0  0  0  0  3           0  0  0
    0.4141    2.2015    7.1220 N   0  0  0  0  0  3           0  0  0
    1.4535   -0.0000   -0.0000 N   0  0  0  0  0  3           0  0  0
    3.5186    0.8131    0.1075 N   0  0  0  0  0  3           0  0  0
    3.5558   -0.5529    0.1734 C   0  0  0  0  0  4           0  0  0
   -0.0741    1.2012    6.4150 C   0  0  0  0  0  4           0  0  0
    2.2476    1.1332    0.0000 C   0  0  0  0  0  4           0  0  0
    2.2852   -1.1083    0.0898 C   0  0  0  0  0  4           0  0  0
   -1.3835    0.6024    6.5038 C   0  0  0  0  0  4           0  0  0
   -2.0539    0.0012    5.4078 C   0  0  0  0  0  4           0  0  0
   -1.5361    0.0006    4.0448 C   0  0  0  0  0  4           0  0  0
   -0.5425    0.0000    1.3969 C   0  0  0  0  0  4           0  0  0
   -2.0089    0.6106    7.7673 C   0  0  0  0  0  4           0  0  0
   -3.3124   -0.5978    5.6388 C   0  0  0  0  0  4           0  0  0
   -1.2930    1.2055    3.3691 C   0  0  0  0  0  4           0  0  0
   -1.2692   -1.2048    3.3787 C   0  0  0  0  0  4           0  0  0
   -0.8005    1.2053    2.0611 C   0  0  0  0  0  4           0  0  0
   -0.7758   -1.2051    2.0708 C   0  0  0  0  0  4           0  0  0
   -3.2564    0.0194    7.9639 C   0  0  0  0  0  4           0  0  0
   -3.9060   -0.5908    6.9006 C   0  0  0  0  0  4           0  0  0
    1.9418   -2.5071    0.1127 C   0  0  0  0  0  4           0  0  0
    0.0000    0.0000    0.0000 C   0  0  0  0  0  4           0  0  0
    1.7418    2.5304   -0.1007 C   0  0  0  0  0  4           0  0  0
    2.5481    3.3698   -1.0870 C   0  0  0  0  0  4           0  0  0
    2.0680    4.8149   -1.2271 C   0  0  0  0  0  4           0  0  0
    2.9152    5.5895   -2.2233 C   0  0  0  0  0  4           0  0  0
  1 10  1  0     0  0
  2 26  2  0     0  0
  3 26  1  0     0  0
  4  5  2  0     0  0
  4  6  1  0     0  0
  5  7  1  0     0  0
  6 11  1  0     0  0
  7 11  2  0     0  0
  8 12  1  0     0  0
  8 13  1  0     0  0
  8 27  1  0     0  0
  9 10  1  0     0  0
  9 12  2  0     0  0
 10 13  2  0     0  0
 11 14  1  0     0  0
 12 28  1  0     0  0
 13 26  1  0     0  0
 14 15  1  0     0  0
 14 18  2  0     0  0
 15 16  1  0     0  0
 15 19  2  0     0  0
 16 20  2  0     0  0
 16 21  1  0     0  0
 17 22  2  0     0  0
 17 23  1  0     0  0
 17 27  1  0     0  0
 18 24  1  0     0  0
 19 25  1  0     0  0
 20 22  1  0     0  0
 21 23  2  0     0  0
 24 25  2  0     0  0
 28 29  1  0     0  0
 29 30  1  0     0  0
 30 31  1  0     0  0
M  END
> <standard_type>
pIC50

> <# Confs.>
25

> <canonical_smiles>
ClC(N=C1CCCC)=C(C(O)=O)N1CC2=CC=C(C3=CC=CC=C3C4=NN=NN4)C=C2

> <standard_relation>
=

> <Publication_ID>
Krovat_2003

> <predicted_activity_value>
8.130768280269024

> <actual_activity_value>
8.886056647693163

> <Compound>
1

> <standard_units>
nM

> hash
1800136262960392497

$$$$
0
XXILIB    08252103503D 0   0.00000     0.00000

 31 34  0     1  0            999 V2000
    5.0450    1.1931    0.7581 Cl  0  0  0  0  0  1           0  0  0
    1.2178    2.8181    1.4807 O   0  0  0  0  0  2           0  0  0
    2.5112    1.6312    2.9118 O   0  0  0  0  0  2           0  0  0
    1.9642    1.5678    5.9658 N   0  0  0  0  0  3           0  0  0
    2.1994    0.5462    6.7781 N   0  0  0  0  0  3           0  0  0
    0.6358    1.5747    5.7919 N   0  0  0  0  0  3           0  0  0
    1.0307   -0.0938    7.1205 N   0  0  0  0  0  3           0  0  0
    1.4535    0.0000   -0.0000 N   0  0  0  0  0  3           0  0  0
    3.5186   -0.4990   -0.6510 N   0  0  0  0  0  3           0  0  0
    3.5558    0.5136    0.2684 C   0  0  0  0  0  4           0  0  0
    0.0630    0.5547    6.5027 C   0  0  0  0  0  4           0  0  0
    2.2476   -0.8013   -0.8013 C   0  0  0  0  0  4           0  0  0
    2.2852    0.8472    0.7202 C   0  0  0  0  0  4           0  0  0
   -1.3532    0.2817    6.5318 C   0  0  0  0  0  4           0  0  0
   -2.1218   -0.0314    5.3814 C   0  0  0  0  0  4           0  0  0
   -1.5873   -0.0234    4.0250 C   0  0  0  0  0  4           0  0  0
   -0.5425    0.0000    1.3969 C   0  0  0  0  0  4           0  0  0
   -1.9880    0.3165    7.7901 C   0  0  0  0  0  4           0  0  0
   -3.4920   -0.3306    5.5519 C   0  0  0  0  0  4           0  0  0
   -0.5214   -0.8627    3.6687 C   0  0  0  0  0  4           0  0  0
   -2.1271    0.8236    3.0455 C   0  0  0  0  0  4           0  0  0
   -0.0060   -0.8523    2.3697 C   0  0  0  0  0  4           0  0  0
   -1.6124    0.8333    1.7459 C   0  0  0  0  0  4           0  0  0
   -3.3449    0.0256    7.9271 C   0  0  0  0  0  4           0  0  0
   -4.0963   -0.3044    6.8084 C   0  0  0  0  0  4           0  0  0
    1.9418    1.8525    1.6930 C   0  0  0  0  0  4           0  0  0
    0.0000    0.0000    0.0000 C   0  0  0  0  0  4           0  0  0
    1.7418   -1.8605   -1.7180 C   0  0  0  0  0  4           0  0  0
    1.6401   -3.2203   -1.0337 C   0  0  0  0  0  4           0  0  0
    2.9659   -3.7554   -0.4913 C   0  0  0  0  0  4           0  0  0
    3.9930   -3.9255   -1.5987 C   0  0  0  0  0  4           0  0  0
  1 10  1  0     0  0
  2 26  2  0     0  0
  3 26  1  0     0  0
  4  5  2  0     0  0
  4  6  1  0     0  0
  5  7  1  0     0  0
  6 11  1  0     0  0
  7 11  2  0     0  0
  8 12  1  0     0  0
  8 13  1  0     0  0
  8 27  1  0     0  0
  9 10  1  0     0  0
  9 12  2  0     0  0
 10 13  2  0     0  0
 11 14  1  0     0  0
 12 28  1  0     0  0
 13 26  1  0     0  0
 14 15  1  0     0  0
 14 18  2  0     0  0
 15 16  1  0     0  0
 15 19  2  0     0  0
 16 20  2  0     0  0
 16 21  1  0     0  0
 17 22  2  0     0  0
 17 23  1  0     0  0
 17 27  1  0     0  0
 18 24  1  0     0  0
 19 25  1  0     0  0
 20 22  1  0     0  0
 21 23  2  0     0  0
 24 25  2  0     0  0
 28 29  1  0     0  0
 29 30  1  0     0  0
 30 31  1  0     0  0
M  END
> <standard_type>
pIC50

> <# Confs.>
25

> <canonical_smiles>
ClC(N=C1CCCC)=C(C(O)=O)N1CC2=CC=C(C3=CC=CC=C3C4=NN=NN4)C=C2

> <standard_relation>
=

> <Publication_ID>
Krovat_2003

> <predicted_activity_value>
8.130768280269024

> <actual_activity_value>
8.886056647693163

> <Compound>
1

> <standard_units>
nM

> hash
1800136262960392497

$$$$
0
XXILIB    08252103503D 0   0.00000     0.00000

 31 34  0     1  0            999 V2000
    5.0450    1.1931    0.7581 Cl  0  0  0  0  0  1           0  0  0
    1.2178    2.8181    1.4807 O   0  0  0  0  0  2           0  0  0
    2.5112    1.6312    2.9118 O   0  0  0  0  0  2           0  0  0
   -3.2342   -3.8697    3.6689 N   0  0  0  0  0  3           0  0  0
   -3.0793   -4.5232    4.8125 N   0  0  0  0  0  3           0  0  0
   -3.1043   -2.5750    3.9882 N   0  0  0  0  0  3           0  0  0
   -2.8521   -3.6528    5.8535 N   0  0  0  0  0  3           0  0  0
    1.4535    0.0000   -0.0000 N   0  0  0  0  0  3           0  0  0
    3.5186   -0.4990   -0.6510 N   0  0  0  0  0  3           0  0  0
    3.5558    0.5136    0.2684 C   0  0  0  0  0  4           0  0  0
   -2.8681   -2.4428    5.3299 C   0  0  0  0  0  4           0  0  0
    2.2476   -0.8013   -0.8013 C   0  0  0  0  0  4           0  0  0
    2.2852    0.8472    0.7202 C   0  0  0  0  0  4           0  0  0
   -2.6811   -1.1789    5.9999 C   0  0  0  0  0  4           0  0  0
   -2.1218   -0.0314    5.3814 C   0  0  0  0  0  4           0  0  0
   -1.5873   -0.0234    4.0250 C   0  0  0  0  0  4           0  0  0
   -0.5425    0.0000    1.3969 C   0  0  0  0  0  4           0  0  0
   -3.1013   -1.0960    7.3430 C   0  0  0  0  0  4           0  0  0
   -2.0414    1.1626    6.1324 C   0  0  0  0  0  4           0  0  0
   -0.5214   -0.8627    3.6687 C   0  0  0  0  0  4           0  0  0
   -2.1271    0.8236    3.0455 C   0  0  0  0  0  4           0  0  0
   -0.0060   -0.8523    2.3697 C   0  0  0  0  0  4           0  0  0
   -1.6124    0.8333    1.7459 C   0  0  0  0  0  4           0  0  0
   -3.0012    0.0940    8.0630 C   0  0  0  0  0  4           0  0  0
   -2.4768    1.2259    7.4557 C   0  0  0  0  0  4           0  0  0
    1.9418    1.8525    1.6930 C   0  0  0  0  0  4           0  0  0
    0.0000    0.0000    0.0000 C   0  0  0  0  0  4           0  0  0
    1.7418   -1.8605   -1.7180 C   0  0  0  0  0  4           0  0  0
    1.6401   -3.2203   -1.0337 C   0  0  0  0  0  4           0  0  0
    1.1248   -4.3438   -1.9340 C   0  0  0  0  0  4           0  0  0
    1.0497   -5.6658   -1.1877 C   0  0  0  0  0  4           0  0  0
  1 10  1  0     0  0
  2 26  2  0     0  0
  3 26  1  0     0  0
  4  5  2  0     0  0
  4  6  1  0     0  0
  5  7  1  0     0  0
  6 11  1  0     0  0
  7 11  2  0     0  0
  8 12  1  0     0  0
  8 13  1  0     0  0
  8 27  1  0     0  0
  9 10  1  0     0  0
  9 12  2  0     0  0
 10 13  2  0     0  0
 11 14  1  0     0  0
 12 28  1  0     0  0
 13 26  1  0     0  0
 14 15  1  0     0  0
 14 18  2  0     0  0
 15 16  1  0     0  0
 15 19  2  0     0  0
 16 20  2  0     0  0
 16 21  1  0     0  0
 17 22  2  0     0  0
 17 23  1  0     0  0
 17 27  1  0     0  0
 18 24  1  0     0  0
 19 25  1  0     0  0
 20 22  1  0     0  0
 21 23  2  0     0  0
 24 25  2  0     0  0
 28 29  1  0     0  0
 29 30  1  0     0  0
 30 31  1  0     0  0
M  END
> <standard_type>
pIC50

> <# Confs.>
25

> <canonical_smiles>
ClC(N=C1CCCC)=C(C(O)=O)N1CC2=CC=C(C3=CC=CC=C3C4=NN=NN4)C=C2

> <standard_relation>
=

> <Publication_ID>
Krovat_2003

> <predicted_activity_value>
8.130768280269024

> <actual_activity_value>
8.886056647693163

> <Compound>
1

> <standard_units>
nM

> hash
1800136262960392497

$$$$
0
XXILIB    08252103503D 0   0.00000     0.00000

 31 34  0     1  0            999 V2000
    5.0450    1.3797   -0.3076 Cl  0  0  0  0  0  1           0  0  0
    1.2178    3.0397   -0.9457 O   0  0  0  0  0  2           0  0  0
    2.5112    3.2124    0.9055 O   0  0  0  0  0  2           0  0  0
   -5.2692    1.6865    2.8785 N   0  0  0  0  0  3           0  0  0
   -6.2440    1.1282    3.5834 N   0  0  0  0  0  3           0  0  0
   -4.1531    1.4499    3.5808 N   0  0  0  0  0  3           0  0  0
   -5.7542    0.5395    4.7263 N   0  0  0  0  0  3           0  0  0
    1.4535   -0.0000   -0.0000 N   0  0  0  0  0  3           0  0  0
    3.5186   -0.8131   -0.1075 N   0  0  0  0  0  3           0  0  0
    3.5558    0.5529   -0.1734 C   0  0  0  0  0  4           0  0  0
   -4.4517    0.7440    4.7149 C   0  0  0  0  0  4           0  0  0
    2.2476   -1.1332    0.0000 C   0  0  0  0  0  4           0  0  0
    2.2852    1.1083   -0.0898 C   0  0  0  0  0  4           0  0  0
   -3.4752    0.3270    5.6915 C   0  0  0  0  0  4           0  0  0
   -2.1234    0.0297    5.3808 C   0  0  0  0  0  4           0  0  0
   -1.5881    0.0225    4.0246 C   0  0  0  0  0  4           0  0  0
   -0.5425    0.0000    1.3969 C   0  0  0  0  0  4           0  0  0
   -3.9062    0.2325    7.0304 C   0  0  0  0  0  4           0  0  0
   -1.2534   -0.3172    6.4384 C   0  0  0  0  0  4           0  0  0
   -2.1106   -0.8422    3.0515 C   0  0  0  0  0  4           0  0  0
   -0.5389    0.8802    3.6623 C   0  0  0  0  0  4           0  0  0
   -1.5950   -0.8523    1.7526 C   0  0  0  0  0  4           0  0  0
   -0.0237    0.8709    2.3629 C   0  0  0  0  0  4           0  0  0
   -3.0268   -0.1214    8.0530 C   0  0  0  0  0  4           0  0  0
   -1.6980   -0.3904    7.7581 C   0  0  0  0  0  4           0  0  0
    1.9418    2.5071   -0.1127 C   0  0  0  0  0  4           0  0  0
    0.0000    0.0000   -0.0000 C   0  0  0  0  0  4           0  0  0
    1.7418   -2.5304    0.1007 C   0  0  0  0  0  4           0  0  0
    1.4493   -3.1417   -1.2662 C   0  0  0  0  0  4           0  0  0
    0.9266   -4.5780   -1.2173 C   0  0  0  0  0  4           0  0  0
    0.6577   -5.1209   -2.6113 C   0  0  0  0  0  4           0  0  0
  1 10  1  0     0  0
  2 26  2  0     0  0
  3 26  1  0     0  0
  4  5  2  0     0  0
  4  6  1  0     0  0
  5  7  1  0     0  0
  6 11  1  0     0  0
  7 11  2  0     0  0
  8 12  1  0     0  0
  8 13  1  0     0  0
  8 27  1  0     0  0
  9 10  1  0     0  0
  9 12  2  0     0  0
 10 13  2  0     0  0
 11 14  1  0     0  0
 12 28  1  0     0  0
 13 26  1  0     0  0
 14 15  1  0     0  0
 14 18  2  0     0  0
 15 16  1  0     0  0
 15 19  2  0     0  0
 16 20  2  0     0  0
 16 21  1  0     0  0
 17 22  2  0     0  0
 17 23  1  0     0  0
 17 27  1  0     0  0
 18 24  1  0     0  0
 19 25  1  0     0  0
 20 22  1  0     0  0
 21 23  2  0     0  0
 24 25  2  0     0  0
 28 29  1  0     0  0
 29 30  1  0     0  0
 30 31  1  0     0  0
M  END
> <standard_type>
pIC50

> <# Confs.>
25

> <canonical_smiles>
ClC(N=C1CCCC)=C(C(O)=O)N1CC2=CC=C(C3=CC=CC=C3C4=NN=NN4)C=C2

> <standard_relation>
=

> <Publication_ID>
Krovat_2003

> <predicted_activity_value>
8.130768280269024

> <actual_activity_value>
8.886056647693163

> <Compound>
1

> <standard_units>
nM

> hash
1800136262960392497

$$$$
0
XXILIB    08252103503D 0   0.00000     0.00000

 31 34  0     1  0            999 V2000
    5.0450   -1.3797    0.3076 Cl  0  0  0  0  0  1           0  0  0
    1.3593   -3.1028   -0.7858 O   0  0  0  0  0  2           0  0  0
    2.3325   -3.1330    1.2591 O   0  0  0  0  0  2           0  0  0
   -5.4197    1.7133    3.0981 N   0  0  0  0  0  3           0  0  0
   -5.3281    2.7987    3.8546 N   0  0  0  0  0  3           0  0  0
   -4.6820    0.7883    3.7267 N   0  0  0  0  0  3           0  0  0
   -4.5385    2.5685    4.9575 N   0  0  0  0  0  3           0  0  0
    1.4535   -0.0000   -0.0000 N   0  0  0  0  0  3           0  0  0
    3.5186    0.8131    0.1075 N   0  0  0  0  0  3           0  0  0
    3.5558   -0.5529    0.1734 C   0  0  0  0  0  4           0  0  0
   -4.1423    1.3140    4.8695 C   0  0  0  0  0  4           0  0  0
    2.2476    1.1332    0.0000 C   0  0  0  0  0  4           0  0  0
    2.2852   -1.1083    0.0898 C   0  0  0  0  0  4           0  0  0
   -3.2945    0.5809    5.7778 C   0  0  0  0  0  4           0  0  0
   -2.0539    0.0012    5.4078 C   0  0  0  0  0  4           0  0  0
   -1.5361    0.0006    4.0448 C   0  0  0  0  0  4           0  0  0
   -0.5425    0.0000    1.3969 C   0  0  0  0  0  4           0  0  0
   -3.7356    0.4600    7.1114 C   0  0  0  0  0  4           0  0  0
   -1.2927   -0.6467    6.4061 C   0  0  0  0  0  4           0  0  0
   -1.2930    1.2055    3.3691 C   0  0  0  0  0  4           0  0  0
   -1.2692   -1.2048    3.3787 C   0  0  0  0  0  4           0  0  0
   -0.8005    1.2053    2.0611 C   0  0  0  0  0  4           0  0  0
   -0.7758   -1.2051    2.0708 C   0  0  0  0  0  4           0  0  0
   -2.9669   -0.1936    8.0739 C   0  0  0  0  0  4           0  0  0
   -1.7418   -0.7419    7.7229 C   0  0  0  0  0  4           0  0  0
    1.9418   -2.5071    0.1127 C   0  0  0  0  0  4           0  0  0
    0.0000    0.0000   -0.0000 C   0  0  0  0  0  4           0  0  0
    1.7418    2.5304   -0.1007 C   0  0  0  0  0  4           0  0  0
    2.5481    3.3698   -1.0870 C   0  0  0  0  0  4           0  0  0
    2.5468    2.8358   -2.5200 C   0  0  0  0  0  4           0  0  0
    3.3676    3.7198   -3.4448 C   0  0  0  0  0  4           0  0  0
  1 10  1  0     0  0
  2 26  2  0     0  0
  3 26  1  0     0  0
  4  5  2  0     0  0
  4  6  1  0     0  0
  5  7  1  0     0  0
  6 11  1  0     0  0
  7 11  2  0     0  0
  8 12  1  0     0  0
  8 13  1  0     0  0
  8 27  1  0     0  0
  9 10  1  0     0  0
  9 12  2  0     0  0
 10 13  2  0     0  0
 11 14  1  0     0  0
 12 28  1  0     0  0
 13 26  1  0     0  0
 14 15  1  0     0  0
 14 18  2  0     0  0
 15 16  1  0     0  0
 15 19  2  0     0  0
 16 20  2  0     0  0
 16 21  1  0     0  0
 17 22  2  0     0  0
 17 23  1  0     0  0
 17 27  1  0     0  0
 18 24  1  0     0  0
 19 25  1  0     0  0
 20 22  1  0     0  0
 21 23  2  0     0  0
 24 25  2  0     0  0
 28 29  1  0     0  0
 29 30  1  0     0  0
 30 31  1  0     0  0
M  END
> <standard_type>
pIC50

> <# Confs.>
25

> <canonical_smiles>
ClC(N=C1CCCC)=C(C(O)=O)N1CC2=CC=C(C3=CC=CC=C3C4=NN=NN4)C=C2

> <standard_relation>
=

> <Publication_ID>
Krovat_2003

> <predicted_activity_value>
8.130768280269024

> <actual_activity_value>
8.886056647693163

> <Compound>
1

> <standard_units>
nM

> hash
1800136262960392497

$$$$
0
XXILIB    08252103503D 0   0.00000     0.00000

 31 34  0     1  0            999 V2000
    5.0450    1.3797   -0.3076 Cl  0  0  0  0  0  1           0  0  0
    1.2178    3.0397   -0.9457 O   0  0  0  0  0  2           0  0  0
    2.5112    3.2124    0.9055 O   0  0  0  0  0  2           0  0  0
   -5.2692    1.6865    2.8785 N   0  0  0  0  0  3           0  0  0
   -6.2440    1.1282    3.5834 N   0  0  0  0  0  3           0  0  0
   -4.1531    1.4499    3.5808 N   0  0  0  0  0  3           0  0  0
   -5.7542    0.5395    4.7263 N   0  0  0  0  0  3           0  0  0
    1.4535   -0.0000   -0.0000 N   0  0  0  0  0  3           0  0  0
    3.5186   -0.8131   -0.1075 N   0  0  0  0  0  3           0  0  0
    3.5558    0.5529   -0.1734 C   0  0  0  0  0  4           0  0  0
   -4.4517    0.7440    4.7149 C   0  0  0  0  0  4           0  0  0
    2.2476   -1.1332    0.0000 C   0  0  0  0  0  4           0  0  0
    2.2852    1.1083   -0.0898 C   0  0  0  0  0  4           0  0  0
   -3.4752    0.3270    5.6915 C   0  0  0  0  0  4           0  0  0
   -2.1234    0.0297    5.3808 C   0  0  0  0  0  4           0  0  0
   -1.5881    0.0225    4.0246 C   0  0  0  0  0  4           0  0  0
   -0.5425    0.0000    1.3969 C   0  0  0  0  0  4           0  0  0
   -3.9062    0.2325    7.0304 C   0  0  0  0  0  4           0  0  0
   -1.2534   -0.3172    6.4384 C   0  0  0  0  0  4           0  0  0
   -2.1106   -0.8422    3.0515 C   0  0  0  0  0  4           0  0  0
   -0.5389    0.8802    3.6623 C   0  0  0  0  0  4           0  0  0
   -1.5950   -0.8523    1.7526 C   0  0  0  0  0  4           0  0  0
   -0.0237    0.8709    2.3629 C   0  0  0  0  0  4           0  0  0
   -3.0268   -0.1214    8.0530 C   0  0  0  0  0  4           0  0  0
   -1.6980   -0.3904    7.7581 C   0  0  0  0  0  4           0  0  0
    1.9418    2.5071   -0.1127 C   0  0  0  0  0  4           0  0  0
    0.0000    0.0000   -0.0000 C   0  0  0  0  0  4           0  0  0
    1.7418   -2.5304    0.1007 C   0  0  0  0  0  4           0  0  0
    1.6401   -3.0080    1.5461 C   0  0  0  0  0  4           0  0  0
    1.1248   -4.4391    1.7040 C   0  0  0  0  0  4           0  0  0
    1.0497   -4.8462    3.1665 C   0  0  0  0  0  4           0  0  0
  1 10  1  0     0  0
  2 26  2  0     0  0
  3 26  1  0     0  0
  4  5  2  0     0  0
  4  6  1  0     0  0
  5  7  1  0     0  0
  6 11  1  0     0  0
  7 11  2  0     0  0
  8 12  1  0     0  0
  8 13  1  0     0  0
  8 27  1  0     0  0
  9 10  1  0     0  0
  9 12  2  0     0  0
 10 13  2  0     0  0
 11 14  1  0     0  0
 12 28  1  0     0  0
 13 26  1  0     0  0
 14 15  1  0     0  0
 14 18  2  0     0  0
 15 16  1  0     0  0
 15 19  2  0     0  0
 16 20  2  0     0  0
 16 21  1  0     0  0
 17 22  2  0     0  0
 17 23  1  0     0  0
 17 27  1  0     0  0
 18 24  1  0     0  0
 19 25  1  0     0  0
 20 22  1  0     0  0
 21 23  2  0     0  0
 24 25  2  0     0  0
 28 29  1  0     0  0
 29 30  1  0     0  0
 30 31  1  0     0  0
M  END
> <standard_type>
pIC50

> <# Confs.>
25

> <canonical_smiles>
ClC(N=C1CCCC)=C(C(O)=O)N1CC2=CC=C(C3=CC=CC=C3C4=NN=NN4)C=C2

> <standard_relation>
=

> <Publication_ID>
Krovat_2003

> <predicted_activity_value>
8.130768280269024

> <actual_activity_value>
8.886056647693163

> <Compound>
1

> <standard_units>
nM

> hash
1800136262960392497

$$$$
0
XXILIB    08252103503D 0   0.00000     0.00000

 31 34  0     1  0            999 V2000
    5.0450   -1.3797    0.3076 Cl  0  0  0  0  0  1           0  0  0
    1.3593   -3.1028   -0.7858 O   0  0  0  0  0  2           0  0  0
    2.3325   -3.1330    1.2591 O   0  0  0  0  0  2           0  0  0
   -5.4197    1.7133    3.0981 N   0  0  0  0  0  3           0  0  0
   -5.3281    2.7987    3.8546 N   0  0  0  0  0  3           0  0  0
   -4.6820    0.7883    3.7267 N   0  0  0  0  0  3           0  0  0
   -4.5385    2.5685    4.9575 N   0  0  0  0  0  3           0  0  0
    1.4535   -0.0000   -0.0000 N   0  0  0  0  0  3           0  0  0
    3.5186    0.8131    0.1075 N   0  0  0  0  0  3           0  0  0
    3.5558   -0.5529    0.1734 C   0  0  0  0  0  4           0  0  0
   -4.1423    1.3140    4.8695 C   0  0  0  0  0  4           0  0  0
    2.2476    1.1332    0.0000 C   0  0  0  0  0  4           0  0  0
    2.2852   -1.1083    0.0898 C   0  0  0  0  0  4           0  0  0
   -3.2945    0.5809    5.7778 C   0  0  0  0  0  4           0  0  0
   -2.0539    0.0012    5.4078 C   0  0  0  0  0  4           0  0  0
   -1.5361    0.0006    4.0448 C   0  0  0  0  0  4           0  0  0
   -0.5425    0.0000    1.3969 C   0  0  0  0  0  4           0  0  0
   -3.7356    0.4600    7.1114 C   0  0  0  0  0  4           0  0  0
   -1.2927   -0.6467    6.4061 C   0  0  0  0  0  4           0  0  0
   -1.2930    1.2055    3.3691 C   0  0  0  0  0  4           0  0  0
   -1.2692   -1.2048    3.3787 C   0  0  0  0  0  4           0  0  0
   -0.8005    1.2053    2.0611 C   0  0  0  0  0  4           0  0  0
   -0.7758   -1.2051    2.0708 C   0  0  0  0  0  4           0  0  0
   -2.9669   -0.1936    8.0739 C   0  0  0  0  0  4           0  0  0
   -1.7418   -0.7419    7.7229 C   0  0  0  0  0  4           0  0  0
    1.9418   -2.5071    0.1127 C   0  0  0  0  0  4           0  0  0
    0.0000    0.0000   -0.0000 C   0  0  0  0  0  4           0  0  0
    1.7418    2.5304   -0.1007 C   0  0  0  0  0  4           0  0  0
    2.5481    3.3698   -1.0870 C   0  0  0  0  0  4           0  0  0
    2.0680    4.8149   -1.2271 C   0  0  0  0  0  4           0  0  0
    2.9152    5.5895   -2.2233 C   0  0  0  0  0  4           0  0  0
  1 10  1  0     0  0
  2 26  2  0     0  0
  3 26  1  0     0  0
  4  5  2  0     0  0
  4  6  1  0     0  0
  5  7  1  0     0  0
  6 11  1  0     0  0
  7 11  2  0     0  0
  8 12  1  0     0  0
  8 13  1  0     0  0
  8 27  1  0     0  0
  9 10  1  0     0  0
  9 12  2  0     0  0
 10 13  2  0     0  0
 11 14  1  0     0  0
 12 28  1  0     0  0
 13 26  1  0     0  0
 14 15  1  0     0  0
 14 18  2  0     0  0
 15 16  1  0     0  0
 15 19  2  0     0  0
 16 20  2  0     0  0
 16 21  1  0     0  0
 17 22  2  0     0  0
 17 23  1  0     0  0
 17 27  1  0     0  0
 18 24  1  0     0  0
 19 25  1  0     0  0
 20 22  1  0     0  0
 21 23  2  0     0  0
 24 25  2  0     0  0
 28 29  1  0     0  0
 29 30  1  0     0  0
 30 31  1  0     0  0
M  END
> <standard_type>
pIC50

> <# Confs.>
25

> <canonical_smiles>
ClC(N=C1CCCC)=C(C(O)=O)N1CC2=CC=C(C3=CC=CC=C3C4=NN=NN4)C=C2

> <standard_relation>
=

> <Publication_ID>
Krovat_2003

> <predicted_activity_value>
8.130768280269024

> <actual_activity_value>
8.886056647693163

> <Compound>
1

> <standard_units>
nM

> hash
1800136262960392497

$$$$
0
XXILIB    08252103503D 0   0.00000     0.00000

 31 34  0     1  0            999 V2000
    5.0450   -1.3797    0.3076 Cl  0  0  0  0  0  1           0  0  0
    1.3593   -3.1028   -0.7858 O   0  0  0  0  0  2           0  0  0
    2.3325   -3.1330    1.2591 O   0  0  0  0  0  2           0  0  0
    2.0003    1.5437    5.7018 N   0  0  0  0  0  3           0  0  0
    1.6974    2.4006    6.6676 N   0  0  0  0  0  3           0  0  0
    0.9002    0.7956    5.5434 N   0  0  0  0  0  3           0  0  0
    0.4141    2.2015    7.1220 N   0  0  0  0  0  3           0  0  0
    1.4535    0.0000    0.0000 N   0  0  0  0  0  3           0  0  0
    3.5186    0.8131    0.1075 N   0  0  0  0  0  3           0  0  0
    3.5558   -0.5529    0.1734 C   0  0  0  0  0  4           0  0  0
   -0.0741    1.2012    6.4150 C   0  0  0  0  0  4           0  0  0
    2.2476    1.1332    0.0000 C   0  0  0  0  0  4           0  0  0
    2.2852   -1.1083    0.0898 C   0  0  0  0  0  4           0  0  0
   -1.3835    0.6024    6.5038 C   0  0  0  0  0  4           0  0  0
   -2.0539    0.0012    5.4078 C   0  0  0  0  0  4           0  0  0
   -1.5361    0.0006    4.0448 C   0  0  0  0  0  4           0  0  0
   -0.5425    0.0000    1.3969 C   0  0  0  0  0  4           0  0  0
   -2.0089    0.6106    7.7673 C   0  0  0  0  0  4           0  0  0
   -3.3124   -0.5978    5.6388 C   0  0  0  0  0  4           0  0  0
   -1.2930    1.2055    3.3691 C   0  0  0  0  0  4           0  0  0
   -1.2692   -1.2048    3.3787 C   0  0  0  0  0  4           0  0  0
   -0.8005    1.2053    2.0611 C   0  0  0  0  0  4           0  0  0
   -0.7758   -1.2051    2.0708 C   0  0  0  0  0  4           0  0  0
   -3.2564    0.0194    7.9639 C   0  0  0  0  0  4           0  0  0
   -3.9060   -0.5908    6.9006 C   0  0  0  0  0  4           0  0  0
    1.9418   -2.5071    0.1127 C   0  0  0  0  0  4           0  0  0
    0.0000    0.0000    0.0000 C   0  0  0  0  0  4           0  0  0
    1.7418    2.5304   -0.1007 C   0  0  0  0  0  4           0  0  0
    2.4132    3.4644    0.9015 C   0  0  0  0  0  4           0  0  0
    1.9278    4.9131    0.8385 C   0  0  0  0  0  4           0  0  0
    2.6381    5.7837    1.8622 C   0  0  0  0  0  4           0  0  0
  1 10  1  0     0  0
  2 26  2  0     0  0
  3 26  1  0     0  0
  4  5  2  0     0  0
  4  6  1  0     0  0
  5  7  1  0     0  0
  6 11  1  0     0  0
  7 11  2  0     0  0
  8 12  1  0     0  0
  8 13  1  0     0  0
  8 27  1  0     0  0
  9 10  1  0     0  0
  9 12  2  0     0  0
 10 13  2  0     0  0
 11 14  1  0     0  0
 12 28  1  0     0  0
 13 26  1  0     0  0
 14 15  1  0     0  0
 14 18  2  0     0  0
 15 16  1  0     0  0
 15 19  2  0     0  0
 16 20  2  0     0  0
 16 21  1  0     0  0
 17 22  2  0     0  0
 17 23  1  0     0  0
 17 27  1  0     0  0
 18 24  1  0     0  0
 19 25  1  0     0  0
 20 22  1  0     0  0
 21 23  2  0     0  0
 24 25  2  0     0  0
 28 29  1  0     0  0
 29 30  1  0     0  0
 30 31  1  0     0  0
M  END
> <standard_type>
pIC50

> <# Confs.>
25

> <canonical_smiles>
ClC(N=C1CCCC)=C(C(O)=O)N1CC2=CC=C(C3=CC=CC=C3C4=NN=NN4)C=C2

> <standard_relation>
=

> <Publication_ID>
Krovat_2003

> <predicted_activity_value>
8.130768280269024

> <actual_activity_value>
8.886056647693163

> <Compound>
1

> <standard_units>
nM

> hash
1800136262960392497

$$$$
0
XXILIB    08252103503D 0   0.00000     0.00000

 31 34  0     1  0            999 V2000
    5.0450    1.3797   -0.3076 Cl  0  0  0  0  0  1           0  0  0
    1.2178    3.0397   -0.9457 O   0  0  0  0  0  2           0  0  0
    2.5112    3.2124    0.9055 O   0  0  0  0  0  2           0  0  0
   -5.2692    1.6865    2.8785 N   0  0  0  0  0  3           0  0  0
   -6.2440    1.1282    3.5834 N   0  0  0  0  0  3           0  0  0
   -4.1531    1.4499    3.5808 N   0  0  0  0  0  3           0  0  0
   -5.7542    0.5395    4.7263 N   0  0  0  0  0  3           0  0  0
    1.4535    0.0000   -0.0000 N   0  0  0  0  0  3           0  0  0
    3.5186   -0.8131   -0.1075 N   0  0  0  0  0  3           0  0  0
    3.5558    0.5529   -0.1734 C   0  0  0  0  0  4           0  0  0
   -4.4517    0.7440    4.7149 C   0  0  0  0  0  4           0  0  0
    2.2476   -1.1332    0.0000 C   0  0  0  0  0  4           0  0  0
    2.2852    1.1083   -0.0898 C   0  0  0  0  0  4           0  0  0
   -3.4752    0.3270    5.6915 C   0  0  0  0  0  4           0  0  0
   -2.1234    0.0297    5.3808 C   0  0  0  0  0  4           0  0  0
   -1.5881    0.0225    4.0246 C   0  0  0  0  0  4           0  0  0
   -0.5425    0.0000    1.3969 C   0  0  0  0  0  4           0  0  0
   -3.9062    0.2325    7.0304 C   0  0  0  0  0  4           0  0  0
   -1.2534   -0.3172    6.4384 C   0  0  0  0  0  4           0  0  0
   -2.1106   -0.8422    3.0515 C   0  0  0  0  0  4           0  0  0
   -0.5389    0.8802    3.6623 C   0  0  0  0  0  4           0  0  0
   -1.5950   -0.8523    1.7526 C   0  0  0  0  0  4           0  0  0
   -0.0237    0.8709    2.3629 C   0  0  0  0  0  4           0  0  0
   -3.0268   -0.1214    8.0530 C   0  0  0  0  0  4           0  0  0
   -1.6980   -0.3904    7.7581 C   0  0  0  0  0  4           0  0  0
    1.9418    2.5071   -0.1127 C   0  0  0  0  0  4           0  0  0
    0.0000    0.0000   -0.0000 C   0  0  0  0  0  4           0  0  0
    1.7418   -2.5304    0.1007 C   0  0  0  0  0  4           0  0  0
    2.5481   -3.3698    1.0870 C   0  0  0  0  0  4           0  0  0
    2.5468   -2.8358    2.5200 C   0  0  0  0  0  4           0  0  0
    3.3676   -3.7198    3.4448 C   0  0  0  0  0  4           0  0  0
  1 10  1  0     0  0
  2 26  2  0     0  0
  3 26  1  0     0  0
  4  5  2  0     0  0
  4  6  1  0     0  0
  5  7  1  0     0  0
  6 11  1  0     0  0
  7 11  2  0     0  0
  8 12  1  0     0  0
  8 13  1  0     0  0
  8 27  1  0     0  0
  9 10  1  0     0  0
  9 12  2  0     0  0
 10 13  2  0     0  0
 11 14  1  0     0  0
 12 28  1  0     0  0
 13 26  1  0     0  0
 14 15  1  0     0  0
 14 18  2  0     0  0
 15 16  1  0     0  0
 15 19  2  0     0  0
 16 20  2  0     0  0
 16 21  1  0     0  0
 17 22  2  0     0  0
 17 23  1  0     0  0
 17 27  1  0     0  0
 18 24  1  0     0  0
 19 25  1  0     0  0
 20 22  1  0     0  0
 21 23  2  0     0  0
 24 25  2  0     0  0
 28 29  1  0     0  0
 29 30  1  0     0  0
 30 31  1  0     0  0
M  END
> <standard_type>
pIC50

> <# Confs.>
25

> <canonical_smiles>
ClC(N=C1CCCC)=C(C(O)=O)N1CC2=CC=C(C3=CC=CC=C3C4=NN=NN4)C=C2

> <standard_relation>
=

> <Publication_ID>
Krovat_2003

> <predicted_activity_value>
8.130768280269024

> <actual_activity_value>
8.886056647693163

> <Compound>
1

> <standard_units>
nM

> hash
1800136262960392497

$$$$
0
XXILIB    08252103503D 0   0.00000     0.00000

 31 34  0     1  0            999 V2000
    5.0450    1.1931    0.7581 Cl  0  0  0  0  0  1           0  0  0
    1.2178    2.8181    1.4807 O   0  0  0  0  0  2           0  0  0
    2.5112    1.6312    2.9118 O   0  0  0  0  0  2           0  0  0
   -3.2342   -3.8697    3.6689 N   0  0  0  0  0  3           0  0  0
   -3.0793   -4.5232    4.8125 N   0  0  0  0  0  3           0  0  0
   -3.1043   -2.5750    3.9882 N   0  0  0  0  0  3           0  0  0
   -2.8521   -3.6528    5.8535 N   0  0  0  0  0  3           0  0  0
    1.4535    0.0000   -0.0000 N   0  0  0  0  0  3           0  0  0
    3.5186   -0.4990   -0.6510 N   0  0  0  0  0  3           0  0  0
    3.5558    0.5136    0.2684 C   0  0  0  0  0  4           0  0  0
   -2.8681   -2.4428    5.3299 C   0  0  0  0  0  4           0  0  0
    2.2476   -0.8013   -0.8013 C   0  0  0  0  0  4           0  0  0
    2.2852    0.8472    0.7202 C   0  0  0  0  0  4           0  0  0
   -2.6811   -1.1789    5.9999 C   0  0  0  0  0  4           0  0  0
   -2.1218   -0.0314    5.3814 C   0  0  0  0  0  4           0  0  0
   -1.5873   -0.0234    4.0250 C   0  0  0  0  0  4           0  0  0
   -0.5425    0.0000    1.3969 C   0  0  0  0  0  4           0  0  0
   -3.1013   -1.0960    7.3430 C   0  0  0  0  0  4           0  0  0
   -2.0414    1.1626    6.1324 C   0  0  0  0  0  4           0  0  0
   -0.5214   -0.8627    3.6687 C   0  0  0  0  0  4           0  0  0
   -2.1271    0.8236    3.0455 C   0  0  0  0  0  4           0  0  0
   -0.0060   -0.8523    2.3697 C   0  0  0  0  0  4           0  0  0
   -1.6124    0.8333    1.7459 C   0  0  0  0  0  4           0  0  0
   -3.0012    0.0940    8.0630 C   0  0  0  0  0  4           0  0  0
   -2.4768    1.2259    7.4557 C   0  0  0  0  0  4           0  0  0
    1.9418    1.8525    1.6930 C   0  0  0  0  0  4           0  0  0
    0.0000    0.0000    0.0000 C   0  0  0  0  0  4           0  0  0
    1.7418   -1.8605   -1.7180 C   0  0  0  0  0  4           0  0  0
    1.4493   -1.3262   -3.1168 C   0  0  0  0  0  4           0  0  0
    0.9266   -2.3764   -4.0979 C   0  0  0  0  0  4           0  0  0
    0.6577   -1.7745   -5.4674 C   0  0  0  0  0  4           0  0  0
  1 10  1  0     0  0
  2 26  2  0     0  0
  3 26  1  0     0  0
  4  5  2  0     0  0
  4  6  1  0     0  0
  5  7  1  0     0  0
  6 11  1  0     0  0
  7 11  2  0     0  0
  8 12  1  0     0  0
  8 13  1  0     0  0
  8 27  1  0     0  0
  9 10  1  0     0  0
  9 12  2  0     0  0
 10 13  2  0     0  0
 11 14  1  0     0  0
 12 28  1  0     0  0
 13 26  1  0     0  0
 14 15  1  0     0  0
 14 18  2  0     0  0
 15 16  1  0     0  0
 15 19  2  0     0  0
 16 20  2  0     0  0
 16 21  1  0     0  0
 17 22  2  0     0  0
 17 23  1  0     0  0
 17 27  1  0     0  0
 18 24  1  0     0  0
 19 25  1  0     0  0
 20 22  1  0     0  0
 21 23  2  0     0  0
 24 25  2  0     0  0
 28 29  1  0     0  0
 29 30  1  0     0  0
 30 31  1  0     0  0
M  END
> <standard_type>
pIC50

> <# Confs.>
25

> <canonical_smiles>
ClC(N=C1CCCC)=C(C(O)=O)N1CC2=CC=C(C3=CC=CC=C3C4=NN=NN4)C=C2

> <standard_relation>
=

> <Publication_ID>
Krovat_2003

> <predicted_activity_value>
8.130768280269024

> <actual_activity_value>
8.886056647693163

> <Compound>
1

> <standard_units>
nM

> hash
1800136262960392497

$$$$
0
XXILIB    08252103503D 0   0.00000     0.00000

 31 34  0     1  0            999 V2000
    5.0450    1.3797   -0.3076 Cl  0  0  0  0  0  1           0  0  0
    1.2178    3.0397   -0.9457 O   0  0  0  0  0  2           0  0  0
    2.5112    3.2124    0.9055 O   0  0  0  0  0  2           0  0  0
   -5.2692    1.6865    2.8785 N   0  0  0  0  0  3           0  0  0
   -6.2440    1.1282    3.5834 N   0  0  0  0  0  3           0  0  0
   -4.1531    1.4499    3.5808 N   0  0  0  0  0  3           0  0  0
   -5.7542    0.5395    4.7263 N   0  0  0  0  0  3           0  0  0
    1.4535   -0.0000   -0.0000 N   0  0  0  0  0  3           0  0  0
    3.5186   -0.8131   -0.1075 N   0  0  0  0  0  3           0  0  0
    3.5558    0.5529   -0.1734 C   0  0  0  0  0  4           0  0  0
   -4.4517    0.7440    4.7149 C   0  0  0  0  0  4           0  0  0
    2.2476   -1.1332    0.0000 C   0  0  0  0  0  4           0  0  0
    2.2852    1.1083   -0.0898 C   0  0  0  0  0  4           0  0  0
   -3.4752    0.3270    5.6915 C   0  0  0  0  0  4           0  0  0
   -2.1234    0.0297    5.3808 C   0  0  0  0  0  4           0  0  0
   -1.5881    0.0225    4.0246 C   0  0  0  0  0  4           0  0  0
   -0.5425    0.0000    1.3969 C   0  0  0  0  0  4           0  0  0
   -3.9062    0.2325    7.0304 C   0  0  0  0  0  4           0  0  0
   -1.2534   -0.3172    6.4384 C   0  0  0  0  0  4           0  0  0
   -2.1106   -0.8422    3.0515 C   0  0  0  0  0  4           0  0  0
   -0.5389    0.8802    3.6623 C   0  0  0  0  0  4           0  0  0
   -1.5950   -0.8523    1.7526 C   0  0  0  0  0  4           0  0  0
   -0.0237    0.8709    2.3629 C   0  0  0  0  0  4           0  0  0
   -3.0268   -0.1214    8.0530 C   0  0  0  0  0  4           0  0  0
   -1.6980   -0.3904    7.7581 C   0  0  0  0  0  4           0  0  0
    1.9418    2.5071   -0.1127 C   0  0  0  0  0  4           0  0  0
    0.0000    0.0000   -0.0000 C   0  0  0  0  0  4           0  0  0
    1.7418   -2.5304    0.1007 C   0  0  0  0  0  4           0  0  0
    1.4493   -3.1417   -1.2662 C   0  0  0  0  0  4           0  0  0
    2.6603   -3.2170   -2.1969 C   0  0  0  0  0  4           0  0  0
    2.2957   -3.8351   -3.5368 C   0  0  0  0  0  4           0  0  0
  1 10  1  0     0  0
  2 26  2  0     0  0
  3 26  1  0     0  0
  4  5  2  0     0  0
  4  6  1  0     0  0
  5  7  1  0     0  0
  6 11  1  0     0  0
  7 11  2  0     0  0
  8 12  1  0     0  0
  8 13  1  0     0  0
  8 27  1  0     0  0
  9 10  1  0     0  0
  9 12  2  0     0  0
 10 13  2  0     0  0
 11 14  1  0     0  0
 12 28  1  0     0  0
 13 26  1  0     0  0
 14 15  1  0     0  0
 14 18  2  0     0  0
 15 16  1  0     0  0
 15 19  2  0     0  0
 16 20  2  0     0  0
 16 21  1  0     0  0
 17 22  2  0     0  0
 17 23  1  0     0  0
 17 27  1  0     0  0
 18 24  1  0     0  0
 19 25  1  0     0  0
 20 22  1  0     0  0
 21 23  2  0     0  0
 24 25  2  0     0  0
 28 29  1  0     0  0
 29 30  1  0     0  0
 30 31  1  0     0  0
M  END
> <standard_type>
pIC50

> <# Confs.>
25

> <canonical_smiles>
ClC(N=C1CCCC)=C(C(O)=O)N1CC2=CC=C(C3=CC=CC=C3C4=NN=NN4)C=C2

> <standard_relation>
=

> <Publication_ID>
Krovat_2003

> <predicted_activity_value>
8.130768280269024

> <actual_activity_value>
8.886056647693163

> <Compound>
1

> <standard_units>
nM

> hash
1800136262960392497

$$$$
0
XXILIB    08252103503D 0   0.00000     0.00000

 31 34  0     1  0            999 V2000
    5.0450    1.1931    0.7581 Cl  0  0  0  0  0  1           0  0  0
    1.2178    2.8181    1.4807 O   0  0  0  0  0  2           0  0  0
    2.5112    1.6312    2.9118 O   0  0  0  0  0  2           0  0  0
   -3.2342   -3.8697    3.6689 N   0  0  0  0  0  3           0  0  0
   -3.0793   -4.5232    4.8125 N   0  0  0  0  0  3           0  0  0
   -3.1043   -2.5750    3.9882 N   0  0  0  0  0  3           0  0  0
   -2.8521   -3.6528    5.8535 N   0  0  0  0  0  3           0  0  0
    1.4535    0.0000    0.0000 N   0  0  0  0  0  3           0  0  0
    3.5186   -0.4990   -0.6510 N   0  0  0  0  0  3           0  0  0
    3.5558    0.5136    0.2684 C   0  0  0  0  0  4           0  0  0
   -2.8681   -2.4428    5.3299 C   0  0  0  0  0  4           0  0  0
    2.2476   -0.8013   -0.8013 C   0  0  0  0  0  4           0  0  0
    2.2852    0.8472    0.7202 C   0  0  0  0  0  4           0  0  0
   -2.6811   -1.1789    5.9999 C   0  0  0  0  0  4           0  0  0
   -2.1218   -0.0314    5.3814 C   0  0  0  0  0  4           0  0  0
   -1.5873   -0.0234    4.0250 C   0  0  0  0  0  4           0  0  0
   -0.5425    0.0000    1.3969 C   0  0  0  0  0  4           0  0  0
   -3.1013   -1.0960    7.3430 C   0  0  0  0  0  4           0  0  0
   -2.0414    1.1626    6.1324 C   0  0  0  0  0  4           0  0  0
   -0.5214   -0.8627    3.6687 C   0  0  0  0  0  4           0  0  0
   -2.1271    0.8236    3.0455 C   0  0  0  0  0  4           0  0  0
   -0.0060   -0.8523    2.3697 C   0  0  0  0  0  4           0  0  0
   -1.6124    0.8333    1.7459 C   0  0  0  0  0  4           0  0  0
   -3.0012    0.0940    8.0630 C   0  0  0  0  0  4           0  0  0
   -2.4768    1.2259    7.4557 C   0  0  0  0  0  4           0  0  0
    1.9418    1.8525    1.6930 C   0  0  0  0  0  4           0  0  0
    0.0000    0.0000    0.0000 C   0  0  0  0  0  4           0  0  0
    1.7418   -1.8605   -1.7180 C   0  0  0  0  0  4           0  0  0
    2.8684   -2.5682   -2.4647 C   0  0  0  0  0  4           0  0  0
    2.4006   -3.6665   -3.4205 C   0  0  0  0  0  4           0  0  0
    3.5732   -4.3263   -4.1277 C   0  0  0  0  0  4           0  0  0
  1 10  1  0     0  0
  2 26  2  0     0  0
  3 26  1  0     0  0
  4  5  2  0     0  0
  4  6  1  0     0  0
  5  7  1  0     0  0
  6 11  1  0     0  0
  7 11  2  0     0  0
  8 12  1  0     0  0
  8 13  1  0     0  0
  8 27  1  0     0  0
  9 10  1  0     0  0
  9 12  2  0     0  0
 10 13  2  0     0  0
 11 14  1  0     0  0
 12 28  1  0     0  0
 13 26  1  0     0  0
 14 15  1  0     0  0
 14 18  2  0     0  0
 15 16  1  0     0  0
 15 19  2  0     0  0
 16 20  2  0     0  0
 16 21  1  0     0  0
 17 22  2  0     0  0
 17 23  1  0     0  0
 17 27  1  0     0  0
 18 24  1  0     0  0
 19 25  1  0     0  0
 20 22  1  0     0  0
 21 23  2  0     0  0
 24 25  2  0     0  0
 28 29  1  0     0  0
 29 30  1  0     0  0
 30 31  1  0     0  0
M  END
> <standard_type>
pIC50

> <# Confs.>
25

> <canonical_smiles>
ClC(N=C1CCCC)=C(C(O)=O)N1CC2=CC=C(C3=CC=CC=C3C4=NN=NN4)C=C2

> <standard_relation>
=

> <Publication_ID>
Krovat_2003

> <predicted_activity_value>
8.130768280269024

> <actual_activity_value>
8.886056647693163

> <Compound>
1

> <standard_units>
nM

> hash
1800136262960392497

$$$$
0
XXILIB    08252103503D 0   0.00000     0.00000

 31 34  0     1  0            999 V2000
    5.0450    1.1931    0.7581 Cl  0  0  0  0  0  1           0  0  0
    1.2178    2.8181    1.4807 O   0  0  0  0  0  2           0  0  0
    2.5112    1.6312    2.9118 O   0  0  0  0  0  2           0  0  0
   -3.2342   -3.8697    3.6689 N   0  0  0  0  0  3           0  0  0
   -3.0793   -4.5232    4.8125 N   0  0  0  0  0  3           0  0  0
   -3.1043   -2.5750    3.9882 N   0  0  0  0  0  3           0  0  0
   -2.8521   -3.6528    5.8535 N   0  0  0  0  0  3           0  0  0
    1.4535    0.0000   -0.0000 N   0  0  0  0  0  3           0  0  0
    3.5186   -0.4990   -0.6510 N   0  0  0  0  0  3           0  0  0
    3.5558    0.5136    0.2684 C   0  0  0  0  0  4           0  0  0
   -2.8681   -2.4428    5.3299 C   0  0  0  0  0  4           0  0  0
    2.2476   -0.8013   -0.8013 C   0  0  0  0  0  4           0  0  0
    2.2852    0.8472    0.7202 C   0  0  0  0  0  4           0  0  0
   -2.6811   -1.1789    5.9999 C   0  0  0  0  0  4           0  0  0
   -2.1218   -0.0314    5.3814 C   0  0  0  0  0  4           0  0  0
   -1.5873   -0.0234    4.0250 C   0  0  0  0  0  4           0  0  0
   -0.5425    0.0000    1.3969 C   0  0  0  0  0  4           0  0  0
   -3.1013   -1.0960    7.3430 C   0  0  0  0  0  4           0  0  0
   -2.0414    1.1626    6.1324 C   0  0  0  0  0  4           0  0  0
   -0.5214   -0.8627    3.6687 C   0  0  0  0  0  4           0  0  0
   -2.1271    0.8236    3.0455 C   0  0  0  0  0  4           0  0  0
   -0.0060   -0.8523    2.3697 C   0  0  0  0  0  4           0  0  0
   -1.6124    0.8333    1.7459 C   0  0  0  0  0  4           0  0  0
   -3.0012    0.0940    8.0630 C   0  0  0  0  0  4           0  0  0
   -2.4768    1.2259    7.4557 C   0  0  0  0  0  4           0  0  0
    1.9418    1.8525    1.6930 C   0  0  0  0  0  4           0  0  0
    0.0000    0.0000    0.0000 C   0  0  0  0  0  4           0  0  0
    1.7418   -1.8605   -1.7180 C   0  0  0  0  0  4           0  0  0
    1.4493   -1.3262   -3.1168 C   0  0  0  0  0  4           0  0  0
    2.6603   -0.7213   -3.8282 C   0  0  0  0  0  4           0  0  0
    2.2957   -0.2109   -5.2127 C   0  0  0  0  0  4           0  0  0
  1 10  1  0     0  0
  2 26  2  0     0  0
  3 26  1  0     0  0
  4  5  2  0     0  0
  4  6  1  0     0  0
  5  7  1  0     0  0
  6 11  1  0     0  0
  7 11  2  0     0  0
  8 12  1  0     0  0
  8 13  1  0     0  0
  8 27  1  0     0  0
  9 10  1  0     0  0
  9 12  2  0     0  0
 10 13  2  0     0  0
 11 14  1  0     0  0
 12 28  1  0     0  0
 13 26  1  0     0  0
 14 15  1  0     0  0
 14 18  2  0     0  0
 15 16  1  0     0  0
 15 19  2  0     0  0
 16 20  2  0     0  0
 16 21  1  0     0  0
 17 22  2  0     0  0
 17 23  1  0     0  0
 17 27  1  0     0  0
 18 24  1  0     0  0
 19 25  1  0     0  0
 20 22  1  0     0  0
 21 23  2  0     0  0
 24 25  2  0     0  0
 28 29  1  0     0  0
 29 30  1  0     0  0
 30 31  1  0     0  0
M  END
> <standard_type>
pIC50

> <# Confs.>
25

> <canonical_smiles>
ClC(N=C1CCCC)=C(C(O)=O)N1CC2=CC=C(C3=CC=CC=C3C4=NN=NN4)C=C2

> <standard_relation>
=

> <Publication_ID>
Krovat_2003

> <predicted_activity_value>
8.130768280269024

> <actual_activity_value>
8.886056647693163

> <Compound>
1

> <standard_units>
nM

> hash
1800136262960392497

$$$$
0
XXILIB    08252103503D 0   0.00000     0.00000

 31 34  0     1  0            999 V2000
    5.0450   -1.3797    0.3076 Cl  0  0  0  0  0  1           0  0  0
    1.3593   -3.1028   -0.7858 O   0  0  0  0  0  2           0  0  0
    2.3325   -3.1330    1.2591 O   0  0  0  0  0  2           0  0  0
    2.0003    1.5437    5.7018 N   0  0  0  0  0  3           0  0  0
    1.6974    2.4006    6.6676 N   0  0  0  0  0  3           0  0  0
    0.9002    0.7956    5.5434 N   0  0  0  0  0  3           0  0  0
    0.4141    2.2015    7.1220 N   0  0  0  0  0  3           0  0  0
    1.4535    0.0000    0.0000 N   0  0  0  0  0  3           0  0  0
    3.5186    0.8131    0.1075 N   0  0  0  0  0  3           0  0  0
    3.5558   -0.5529    0.1734 C   0  0  0  0  0  4           0  0  0
   -0.0741    1.2012    6.4150 C   0  0  0  0  0  4           0  0  0
    2.2476    1.1332    0.0000 C   0  0  0  0  0  4           0  0  0
    2.2852   -1.1083    0.0898 C   0  0  0  0  0  4           0  0  0
   -1.3835    0.6024    6.5038 C   0  0  0  0  0  4           0  0  0
   -2.0539    0.0012    5.4078 C   0  0  0  0  0  4           0  0  0
   -1.5361    0.0006    4.0448 C   0  0  0  0  0  4           0  0  0
   -0.5425    0.0000    1.3969 C   0  0  0  0  0  4           0  0  0
   -2.0089    0.6106    7.7673 C   0  0  0  0  0  4           0  0  0
   -3.3124   -0.5978    5.6388 C   0  0  0  0  0  4           0  0  0
   -1.2930    1.2055    3.3691 C   0  0  0  0  0  4           0  0  0
   -1.2692   -1.2048    3.3787 C   0  0  0  0  0  4           0  0  0
   -0.8005    1.2053    2.0611 C   0  0  0  0  0  4           0  0  0
   -0.7758   -1.2051    2.0708 C   0  0  0  0  0  4           0  0  0
   -3.2564    0.0194    7.9639 C   0  0  0  0  0  4           0  0  0
   -3.9060   -0.5908    6.9006 C   0  0  0  0  0  4           0  0  0
    1.9418   -2.5071    0.1127 C   0  0  0  0  0  4           0  0  0
    0.0000    0.0000    0.0000 C   0  0  0  0  0  4           0  0  0
    1.7418    2.5304   -0.1007 C   0  0  0  0  0  4           0  0  0
    2.4132    3.4644    0.9015 C   0  0  0  0  0  4           0  0  0
    2.2154    3.0681    2.3652 C   0  0  0  0  0  4           0  0  0
    2.9097    4.0406    3.3045 C   0  0  0  0  0  4           0  0  0
  1 10  1  0     0  0
  2 26  2  0     0  0
  3 26  1  0     0  0
  4  5  2  0     0  0
  4  6  1  0     0  0
  5  7  1  0     0  0
  6 11  1  0     0  0
  7 11  2  0     0  0
  8 12  1  0     0  0
  8 13  1  0     0  0
  8 27  1  0     0  0
  9 10  1  0     0  0
  9 12  2  0     0  0
 10 13  2  0     0  0
 11 14  1  0     0  0
 12 28  1  0     0  0
 13 26  1  0     0  0
 14 15  1  0     0  0
 14 18  2  0     0  0
 15 16  1  0     0  0
 15 19  2  0     0  0
 16 20  2  0     0  0
 16 21  1  0     0  0
 17 22  2  0     0  0
 17 23  1  0     0  0
 17 27  1  0     0  0
 18 24  1  0     0  0
 19 25  1  0     0  0
 20 22  1  0     0  0
 21 23  2  0     0  0
 24 25  2  0     0  0
 28 29  1  0     0  0
 29 30  1  0     0  0
 30 31  1  0     0  0
M  END
> <standard_type>
pIC50

> <# Confs.>
25

> <canonical_smiles>
ClC(N=C1CCCC)=C(C(O)=O)N1CC2=CC=C(C3=CC=CC=C3C4=NN=NN4)C=C2

> <standard_relation>
=

> <Publication_ID>
Krovat_2003

> <predicted_activity_value>
8.130768280269024

> <actual_activity_value>
8.886056647693163

> <Compound>
1

> <standard_units>
nM

> hash
1800136262960392497

$$$$
0
XXILIB    08252103503D 0   0.00000     0.00000

 31 34  0     1  0            999 V2000
    5.0450    1.3797   -0.3076 Cl  0  0  0  0  0  1           0  0  0
    1.2178    3.0397   -0.9457 O   0  0  0  0  0  2           0  0  0
    2.5112    3.2124    0.9055 O   0  0  0  0  0  2           0  0  0
   -5.2692    1.6865    2.8785 N   0  0  0  0  0  3           0  0  0
   -6.2440    1.1282    3.5834 N   0  0  0  0  0  3           0  0  0
   -4.1531    1.4499    3.5808 N   0  0  0  0  0  3           0  0  0
   -5.7542    0.5395    4.7263 N   0  0  0  0  0  3           0  0  0
    1.4535    0.0000    0.0000 N   0  0  0  0  0  3           0  0  0
    3.5186   -0.8131   -0.1075 N   0  0  0  0  0  3           0  0  0
    3.5558    0.5529   -0.1734 C   0  0  0  0  0  4           0  0  0
   -4.4517    0.7440    4.7149 C   0  0  0  0  0  4           0  0  0
    2.2476   -1.1332    0.0000 C   0  0  0  0  0  4           0  0  0
    2.2852    1.1083   -0.0898 C   0  0  0  0  0  4           0  0  0
   -3.4752    0.3270    5.6915 C   0  0  0  0  0  4           0  0  0
   -2.1234    0.0297    5.3808 C   0  0  0  0  0  4           0  0  0
   -1.5881    0.0225    4.0246 C   0  0  0  0  0  4           0  0  0
   -0.5425    0.0000    1.3969 C   0  0  0  0  0  4           0  0  0
   -3.9062    0.2325    7.0304 C   0  0  0  0  0  4           0  0  0
   -1.2534   -0.3172    6.4384 C   0  0  0  0  0  4           0  0  0
   -2.1106   -0.8422    3.0515 C   0  0  0  0  0  4           0  0  0
   -0.5389    0.8802    3.6623 C   0  0  0  0  0  4           0  0  0
   -1.5950   -0.8523    1.7526 C   0  0  0  0  0  4           0  0  0
   -0.0237    0.8709    2.3629 C   0  0  0  0  0  4           0  0  0
   -3.0268   -0.1214    8.0530 C   0  0  0  0  0  4           0  0  0
   -1.6980   -0.3904    7.7581 C   0  0  0  0  0  4           0  0  0
    1.9418    2.5071   -0.1127 C   0  0  0  0  0  4           0  0  0
    0.0000    0.0000   -0.0000 C   0  0  0  0  0  4           0  0  0
    1.7418   -2.5304    0.1007 C   0  0  0  0  0  4           0  0  0
    2.8684   -3.5589    0.0732 C   0  0  0  0  0  4           0  0  0
    2.4006   -5.0113    0.1740 C   0  0  0  0  0  4           0  0  0
    3.5732   -5.9779    0.1404 C   0  0  0  0  0  4           0  0  0
  1 10  1  0     0  0
  2 26  2  0     0  0
  3 26  1  0     0  0
  4  5  2  0     0  0
  4  6  1  0     0  0
  5  7  1  0     0  0
  6 11  1  0     0  0
  7 11  2  0     0  0
  8 12  1  0     0  0
  8 13  1  0     0  0
  8 27  1  0     0  0
  9 10  1  0     0  0
  9 12  2  0     0  0
 10 13  2  0     0  0
 11 14  1  0     0  0
 12 28  1  0     0  0
 13 26  1  0     0  0
 14 15  1  0     0  0
 14 18  2  0     0  0
 15 16  1  0     0  0
 15 19  2  0     0  0
 16 20  2  0     0  0
 16 21  1  0     0  0
 17 22  2  0     0  0
 17 23  1  0     0  0
 17 27  1  0     0  0
 18 24  1  0     0  0
 19 25  1  0     0  0
 20 22  1  0     0  0
 21 23  2  0     0  0
 24 25  2  0     0  0
 28 29  1  0     0  0
 29 30  1  0     0  0
 30 31  1  0     0  0
M  END
> <standard_type>
pIC50

> <# Confs.>
25

> <canonical_smiles>
ClC(N=C1CCCC)=C(C(O)=O)N1CC2=CC=C(C3=CC=CC=C3C4=NN=NN4)C=C2

> <standard_relation>
=

> <Publication_ID>
Krovat_2003

> <predicted_activity_value>
8.130768280269024

> <actual_activity_value>
8.886056647693163

> <Compound>
1

> <standard_units>
nM

> hash
1800136262960392497

$$$$
0
XXILIB    08252103503D 0   0.00000     0.00000

 31 34  0     1  0            999 V2000
    5.0450   -1.3797    0.3076 Cl  0  0  0  0  0  1           0  0  0
    1.3593   -3.1028   -0.7858 O   0  0  0  0  0  2           0  0  0
    2.3325   -3.1330    1.2591 O   0  0  0  0  0  2           0  0  0
   -5.4197    1.7133    3.0981 N   0  0  0  0  0  3           0  0  0
   -5.3281    2.7987    3.8546 N   0  0  0  0  0  3           0  0  0
   -4.6820    0.7883    3.7267 N   0  0  0  0  0  3           0  0  0
   -4.5385    2.5685    4.9575 N   0  0  0  0  0  3           0  0  0
    1.4535    0.0000    0.0000 N   0  0  0  0  0  3           0  0  0
    3.5186    0.8131    0.1075 N   0  0  0  0  0  3           0  0  0
    3.5558   -0.5529    0.1734 C   0  0  0  0  0  4           0  0  0
   -4.1423    1.3140    4.8695 C   0  0  0  0  0  4           0  0  0
    2.2476    1.1332    0.0000 C   0  0  0  0  0  4           0  0  0
    2.2852   -1.1083    0.0898 C   0  0  0  0  0  4           0  0  0
   -3.2945    0.5809    5.7778 C   0  0  0  0  0  4           0  0  0
   -2.0539    0.0012    5.4078 C   0  0  0  0  0  4           0  0  0
   -1.5361    0.0006    4.0448 C   0  0  0  0  0  4           0  0  0
   -0.5425    0.0000    1.3969 C   0  0  0  0  0  4           0  0  0
   -3.7356    0.4600    7.1114 C   0  0  0  0  0  4           0  0  0
   -1.2927   -0.6467    6.4061 C   0  0  0  0  0  4           0  0  0
   -1.2930    1.2055    3.3691 C   0  0  0  0  0  4           0  0  0
   -1.2692   -1.2048    3.3787 C   0  0  0  0  0  4           0  0  0
   -0.8005    1.2053    2.0611 C   0  0  0  0  0  4           0  0  0
   -0.7758   -1.2051    2.0708 C   0  0  0  0  0  4           0  0  0
   -2.9669   -0.1936    8.0739 C   0  0  0  0  0  4           0  0  0
   -1.7418   -0.7419    7.7229 C   0  0  0  0  0  4           0  0  0
    1.9418   -2.5071    0.1127 C   0  0  0  0  0  4           0  0  0
    0.0000    0.0000   -0.0000 C   0  0  0  0  0  4           0  0  0
    1.7418    2.5304   -0.1007 C   0  0  0  0  0  4           0  0  0
    2.4132    3.4644    0.9015 C   0  0  0  0  0  4           0  0  0
    1.9278    4.9131    0.8385 C   0  0  0  0  0  4           0  0  0
    2.6381    5.7837    1.8622 C   0  0  0  0  0  4           0  0  0
  1 10  1  0     0  0
  2 26  2  0     0  0
  3 26  1  0     0  0
  4  5  2  0     0  0
  4  6  1  0     0  0
  5  7  1  0     0  0
  6 11  1  0     0  0
  7 11  2  0     0  0
  8 12  1  0     0  0
  8 13  1  0     0  0
  8 27  1  0     0  0
  9 10  1  0     0  0
  9 12  2  0     0  0
 10 13  2  0     0  0
 11 14  1  0     0  0
 12 28  1  0     0  0
 13 26  1  0     0  0
 14 15  1  0     0  0
 14 18  2  0     0  0
 15 16  1  0     0  0
 15 19  2  0     0  0
 16 20  2  0     0  0
 16 21  1  0     0  0
 17 22  2  0     0  0
 17 23  1  0     0  0
 17 27  1  0     0  0
 18 24  1  0     0  0
 19 25  1  0     0  0
 20 22  1  0     0  0
 21 23  2  0     0  0
 24 25  2  0     0  0
 28 29  1  0     0  0
 29 30  1  0     0  0
 30 31  1  0     0  0
M  END
> <standard_type>
pIC50

> <# Confs.>
25

> <canonical_smiles>
ClC(N=C1CCCC)=C(C(O)=O)N1CC2=CC=C(C3=CC=CC=C3C4=NN=NN4)C=C2

> <standard_relation>
=

> <Publication_ID>
Krovat_2003

> <predicted_activity_value>
8.130768280269024

> <actual_activity_value>
8.886056647693163

> <Compound>
1

> <standard_units>
nM

> hash
1800136262960392497

$$$$
0
XXILIB    08252103503D 0   0.00000     0.00000

 31 34  0     1  0            999 V2000
    5.0450    1.3797   -0.3076 Cl  0  0  0  0  0  1           0  0  0
    1.2178    3.0397   -0.9457 O   0  0  0  0  0  2           0  0  0
    2.5112    3.2124    0.9055 O   0  0  0  0  0  2           0  0  0
   -0.2944   -3.9907    5.0886 N   0  0  0  0  0  3           0  0  0
   -1.4900   -4.5041    5.3452 N   0  0  0  0  0  3           0  0  0
   -0.4035   -2.6895    5.3883 N   0  0  0  0  0  3           0  0  0
   -2.3553   -3.5386    5.8054 N   0  0  0  0  0  3           0  0  0
    1.4535    0.0000   -0.0000 N   0  0  0  0  0  3           0  0  0
    3.5186   -0.8131   -0.1075 N   0  0  0  0  0  3           0  0  0
    3.5558    0.5529   -0.1734 C   0  0  0  0  0  4           0  0  0
   -1.6692   -2.4129    5.8300 C   0  0  0  0  0  4           0  0  0
    2.2476   -1.1332    0.0000 C   0  0  0  0  0  4           0  0  0
    2.2852    1.1083   -0.0898 C   0  0  0  0  0  4           0  0  0
   -2.1191   -1.1032    6.2343 C   0  0  0  0  0  4           0  0  0
   -2.1234    0.0297    5.3808 C   0  0  0  0  0  4           0  0  0
   -1.5881    0.0225    4.0246 C   0  0  0  0  0  4           0  0  0
   -0.5425    0.0000    1.3969 C   0  0  0  0  0  4           0  0  0
   -2.5945   -0.9671    7.5545 C   0  0  0  0  0  4           0  0  0
   -2.6395    1.2452    5.8830 C   0  0  0  0  0  4           0  0  0
   -2.1106   -0.8422    3.0515 C   0  0  0  0  0  4           0  0  0
   -0.5389    0.8802    3.6623 C   0  0  0  0  0  4           0  0  0
   -1.5950   -0.8523    1.7526 C   0  0  0  0  0  4           0  0  0
   -0.0237    0.8709    2.3629 C   0  0  0  0  0  4           0  0  0
   -3.0897    0.2481    8.0262 C   0  0  0  0  0  4           0  0  0
   -3.1183    1.3535    7.1883 C   0  0  0  0  0  4           0  0  0
    1.9418    2.5071   -0.1127 C   0  0  0  0  0  4           0  0  0
    0.0000    0.0000    0.0000 C   0  0  0  0  0  4           0  0  0
    1.7418   -2.5304    0.1007 C   0  0  0  0  0  4           0  0  0
    2.5481   -3.3698    1.0870 C   0  0  0  0  0  4           0  0  0
    2.5468   -2.8358    2.5200 C   0  0  0  0  0  4           0  0  0
    3.3676   -3.7198    3.4448 C   0  0  0  0  0  4           0  0  0
  1 10  1  0     0  0
  2 26  2  0     0  0
  3 26  1  0     0  0
  4  5  2  0     0  0
  4  6  1  0     0  0
  5  7  1  0     0  0
  6 11  1  0     0  0
  7 11  2  0     0  0
  8 12  1  0     0  0
  8 13  1  0     0  0
  8 27  1  0     0  0
  9 10  1  0     0  0
  9 12  2  0     0  0
 10 13  2  0     0  0
 11 14  1  0     0  0
 12 28  1  0     0  0
 13 26  1  0     0  0
 14 15  1  0     0  0
 14 18  2  0     0  0
 15 16  1  0     0  0
 15 19  2  0     0  0
 16 20  2  0     0  0
 16 21  1  0     0  0
 17 22  2  0     0  0
 17 23  1  0     0  0
 17 27  1  0     0  0
 18 24  1  0     0  0
 19 25  1  0     0  0
 20 22  1  0     0  0
 21 23  2  0     0  0
 24 25  2  0     0  0
 28 29  1  0     0  0
 29 30  1  0     0  0
 30 31  1  0     0  0
M  END
> <standard_type>
pIC50

> <# Confs.>
25

> <canonical_smiles>
ClC(N=C1CCCC)=C(C(O)=O)N1CC2=CC=C(C3=CC=CC=C3C4=NN=NN4)C=C2

> <standard_relation>
=

> <Publication_ID>
Krovat_2003

> <predicted_activity_value>
8.130768280269024

> <actual_activity_value>
8.886056647693163

> <Compound>
1

> <standard_units>
nM

> hash
1800136262960392497

$$$$
0
XXILIB    08252103503D 0   0.00000     0.00000

 31 34  0     1  0            999 V2000
    5.0450   -1.3797    0.3076 Cl  0  0  0  0  0  1           0  0  0
    1.3593   -3.1028   -0.7858 O   0  0  0  0  0  2           0  0  0
    2.3325   -3.1330    1.2591 O   0  0  0  0  0  2           0  0  0
   -5.7237   -0.4995    2.9835 N   0  0  0  0  0  3           0  0  0
   -6.1836    0.6177    3.5305 N   0  0  0  0  0  3           0  0  0
   -4.6678   -0.8441    3.7328 N   0  0  0  0  0  3           0  0  0
   -5.4277    0.9833    4.6204 N   0  0  0  0  0  3           0  0  0
    1.4535   -0.0000   -0.0000 N   0  0  0  0  0  3           0  0  0
    3.5186    0.8131    0.1075 N   0  0  0  0  0  3           0  0  0
    3.5558   -0.5529    0.1734 C   0  0  0  0  0  4           0  0  0
   -4.4876    0.0664    4.7388 C   0  0  0  0  0  4           0  0  0
    2.2476    1.1332    0.0000 C   0  0  0  0  0  4           0  0  0
    2.2852   -1.1083    0.0898 C   0  0  0  0  0  4           0  0  0
   -3.4366   -0.0109    5.7241 C   0  0  0  0  0  4           0  0  0
   -2.0539    0.0012    5.4078 C   0  0  0  0  0  4           0  0  0
   -1.5361    0.0006    4.0448 C   0  0  0  0  0  4           0  0  0
   -0.5425    0.0000    1.3969 C   0  0  0  0  0  4           0  0  0
   -3.8286   -0.0848    7.0763 C   0  0  0  0  0  4           0  0  0
   -1.1231   -0.0268    6.4702 C   0  0  0  0  0  4           0  0  0
   -1.2930    1.2055    3.3691 C   0  0  0  0  0  4           0  0  0
   -1.2692   -1.2048    3.3787 C   0  0  0  0  0  4           0  0  0
   -0.8005    1.2053    2.0611 C   0  0  0  0  0  4           0  0  0
   -0.7758   -1.2051    2.0708 C   0  0  0  0  0  4           0  0  0
   -2.8871   -0.1206    8.1042 C   0  0  0  0  0  4           0  0  0
   -1.5335   -0.0852    7.8017 C   0  0  0  0  0  4           0  0  0
    1.9418   -2.5071    0.1127 C   0  0  0  0  0  4           0  0  0
    0.0000   -0.0000    0.0000 C   0  0  0  0  0  4           0  0  0
    1.7418    2.5304   -0.1007 C   0  0  0  0  0  4           0  0  0
    2.5481    3.3698   -1.0870 C   0  0  0  0  0  4           0  0  0
    2.5468    2.8358   -2.5200 C   0  0  0  0  0  4           0  0  0
    3.3676    3.7198   -3.4448 C   0  0  0  0  0  4           0  0  0
  1 10  1  0     0  0
  2 26  2  0     0  0
  3 26  1  0     0  0
  4  5  2  0     0  0
  4  6  1  0     0  0
  5  7  1  0     0  0
  6 11  1  0     0  0
  7 11  2  0     0  0
  8 12  1  0     0  0
  8 13  1  0     0  0
  8 27  1  0     0  0
  9 10  1  0     0  0
  9 12  2  0     0  0
 10 13  2  0     0  0
 11 14  1  0     0  0
 12 28  1  0     0  0
 13 26  1  0     0  0
 14 15  1  0     0  0
 14 18  2  0     0  0
 15 16  1  0     0  0
 15 19  2  0     0  0
 16 20  2  0     0  0
 16 21  1  0     0  0
 17 22  2  0     0  0
 17 23  1  0     0  0
 17 27  1  0     0  0
 18 24  1  0     0  0
 19 25  1  0     0  0
 20 22  1  0     0  0
 21 23  2  0     0  0
 24 25  2  0     0  0
 28 29  1  0     0  0
 29 30  1  0     0  0
 30 31  1  0     0  0
M  END
> <standard_type>
pIC50

> <# Confs.>
25

> <canonical_smiles>
ClC(N=C1CCCC)=C(C(O)=O)N1CC2=CC=C(C3=CC=CC=C3C4=NN=NN4)C=C2

> <standard_relation>
=

> <Publication_ID>
Krovat_2003

> <predicted_activity_value>
8.130768280269024

> <actual_activity_value>
8.886056647693163

> <Compound>
1

> <standard_units>
nM

> hash
1800136262960392497

$$$$
8
XXILIB    08252103503D 0   0.00000     0.00000

 34 36  0     1  0            999 V2000
    5.0080   -1.4815   -0.1021 Cl  0  0  0  0  0  1           0  0  0
    0.3717    0.1347    9.8366 O   0  0  0  0  0  2           0  0  0
    1.2658   -2.3011   -2.4169 O   0  0  0  0  0  2           0  0  0
   -0.7833   -1.5797    6.3267 O   0  0  0  0  0  2           0  0  0
    1.8058   -4.3462   -1.5016 O   0  0  0  0  0  2           0  0  0
    0.0392    0.7791    7.6756 O   0  0  0  0  0  2           0  0  0
    1.4519    0.0000   -0.0000 N   0  0  0  0  0  3           0  0  0
    3.5357    0.7699   -0.0300 N   0  0  0  0  0  3           0  0  0
   -2.1254    0.0120    5.3110 N   0  0  0  0  0  3           0  0  0
    3.5498   -0.5999   -0.0532 C   0  0  0  0  0  4           0  0  0
    2.2647    1.1169    0.0000 C   0  0  0  0  0  4           0  0  0
    2.2666   -1.1149   -0.0368 C   0  0  0  0  0  4           0  0  0
   -1.5762   -0.0184    4.0146 C   0  0  0  0  0  4           0  0  0
   -1.7677   -0.1334    8.8189 C   0  0  0  0  0  4           0  0  0
   -2.4224   -0.5618    7.6511 C   0  0  0  0  0  4           0  0  0
   -0.5415    0.0000    1.3968 C   0  0  0  0  0  4           0  0  0
   -0.5145   -0.8615    3.6712 C   0  0  0  0  0  4           0  0  0
   -2.1218    0.8297    3.0457 C   0  0  0  0  0  4           0  0  0
   -2.4697   -0.0443   10.0277 C   0  0  0  0  0  4           0  0  0
   -3.7883   -0.8760    7.7099 C   0  0  0  0  0  4           0  0  0
   -0.0042   -0.8528    2.3700 C   0  0  0  0  0  4           0  0  0
   -1.6092    0.8363    1.7462 C   0  0  0  0  0  4           0  0  0
   -3.8266   -0.3614   10.0722 C   0  0  0  0  0  4           0  0  0
   -4.4849   -0.7720    8.9154 C   0  0  0  0  0  4           0  0  0
   -0.3497    0.2617    8.8619 C   0  0  0  0  0  4           0  0  0
    1.5787   -2.9999   -1.4621 C   0  0  0  0  0  4           0  0  0
   -1.6993   -0.7613    6.3724 C   0  0  0  0  0  4           0  0  0
    1.6560   -4.9594   -2.7865 C   0  0  0  0  0  4           0  0  0
    0.0000    0.0000    0.0000 C   0  0  0  0  0  4           0  0  0
    1.7724    2.5193    0.0302 C   0  0  0  0  0  4           0  0  0
    1.7845   -2.5190   -0.0479 C   0  0  0  0  0  4           0  0  0
    1.5524    3.0862   -1.3688 C   0  0  0  0  0  4           0  0  0
    1.0451    4.5287   -1.3985 C   0  0  0  0  0  4           0  0  0
    0.8385    5.0569   -2.8104 C   0  0  0  0  0  4           0  0  0
  1 10  1  0     0  0
  2 25  2  0     0  0
  3 26  2  0     0  0
  4 27  2  0     0  0
  5 26  1  0     0  0
  5 28  1  0     0  0
  6 25  1  0     0  0
  7 11  1  0     0  0
  7 12  1  0     0  0
  7 29  1  0     0  0
  8 10  1  0     0  0
  8 11  2  0     0  0
  9 13  1  0     0  0
  9 27  1  0     0  0
 10 12  2  0     0  0
 11 30  1  0     0  0
 12 31  1  0     0  0
 13 17  2  0     0  0
 13 18  1  0     0  0
 14 15  1  0     0  0
 14 19  2  0     0  0
 14 25  1  0     0  0
 15 20  2  0     0  0
 15 27  1  0     0  0
 16 21  2  0     0  0
 16 22  1  0     0  0
 16 29  1  0     0  0
 17 21  1  0     0  0
 18 22  2  0     0  0
 19 23  1  0     0  0
 20 24  1  0     0  0
 23 24  2  0     0  0
 26 31  1  0     0  0
 30 32  1  0     0  0
 32 33  1  0     0  0
 33 34  1  0     0  0
M  END
> <standard_type>
pIC50

> <# Confs.>
25

> <canonical_smiles>
ClC(N=C1CCCC)=C(CC(OC)=O)N1CC2=CC=C(NC(C3=CC=CC=C3C(O)=O)=O)C=C2

> <standard_relation>
=

> <Publication_ID>
nan

> <predicted_activity_value>
5.468521082957745

> <actual_activity_value>
6.853871964321762

> <Compound>
9

> <standard_units>
nM

> hash
16389122266415346093

$$$$
8
XXILIB    08252103503D 0   0.00000     0.00000

 34 36  0     1  0            999 V2000
    5.0080   -1.4815   -0.1021 Cl  0  0  0  0  0  1           0  0  0
   -3.1411   -3.9022    8.4747 O   0  0  0  0  0  2           0  0  0
    1.2658   -2.3011   -2.4169 O   0  0  0  0  0  2           0  0  0
   -3.7075   -1.5566    5.1930 O   0  0  0  0  0  2           0  0  0
    1.8058   -4.3462   -1.5016 O   0  0  0  0  0  2           0  0  0
   -1.8554   -2.8111    6.9411 O   0  0  0  0  0  2           0  0  0
    1.4519    0.0000   -0.0000 N   0  0  0  0  0  3           0  0  0
    3.5357    0.7699   -0.0300 N   0  0  0  0  0  3           0  0  0
   -2.0565    0.0619    5.3377 N   0  0  0  0  0  3           0  0  0
    3.5498   -0.5999   -0.0532 C   0  0  0  0  0  4           0  0  0
    2.2647    1.1169    0.0000 C   0  0  0  0  0  4           0  0  0
    2.2666   -1.1149   -0.0368 C   0  0  0  0  0  4           0  0  0
   -1.5761    0.0185    4.0147 C   0  0  0  0  0  4           0  0  0
   -3.3276   -1.5396    8.2141 C   0  0  0  0  0  4           0  0  0
   -3.4190   -0.5071    7.2647 C   0  0  0  0  0  4           0  0  0
   -0.5415   -0.0000    1.3968 C   0  0  0  0  0  4           0  0  0
   -2.1078   -0.8473    3.0535 C   0  0  0  0  0  4           0  0  0
   -0.5301    0.8773    3.6628 C   0  0  0  0  0  4           0  0  0
   -3.7437   -1.3220    9.5338 C   0  0  0  0  0  4           0  0  0
   -3.9102    0.7452    7.6627 C   0  0  0  0  0  4           0  0  0
   -1.5944   -0.8528    1.7534 C   0  0  0  0  0  4           0  0  0
   -0.0190    0.8692    2.3627 C   0  0  0  0  0  4           0  0  0
   -4.2316   -0.0730    9.9152 C   0  0  0  0  0  4           0  0  0
   -4.3106    0.9590    8.9830 C   0  0  0  0  0  4           0  0  0
   -2.7884   -2.8773    7.9165 C   0  0  0  0  0  4           0  0  0
    1.5787   -2.9999   -1.4621 C   0  0  0  0  0  4           0  0  0
   -3.0796   -0.7191    5.8372 C   0  0  0  0  0  4           0  0  0
    1.6560   -4.9594   -2.7865 C   0  0  0  0  0  4           0  0  0
    0.0000    0.0000    0.0000 C   0  0  0  0  0  4           0  0  0
    1.7724    2.5193    0.0302 C   0  0  0  0  0  4           0  0  0
    1.7845   -2.5190   -0.0479 C   0  0  0  0  0  4           0  0  0
    2.5020    3.4110   -0.9696 C   0  0  0  0  0  4           0  0  0
    2.3715    2.9710   -2.4284 C   0  0  0  0  0  4           0  0  0
    3.1123    3.8850   -3.3932 C   0  0  0  0  0  4           0  0  0
  1 10  1  0     0  0
  2 25  2  0     0  0
  3 26  2  0     0  0
  4 27  2  0     0  0
  5 26  1  0     0  0
  5 28  1  0     0  0
  6 25  1  0     0  0
  7 11  1  0     0  0
  7 12  1  0     0  0
  7 29  1  0     0  0
  8 10  1  0     0  0
  8 11  2  0     0  0
  9 13  1  0     0  0
  9 27  1  0     0  0
 10 12  2  0     0  0
 11 30  1  0     0  0
 12 31  1  0     0  0
 13 17  2  0     0  0
 13 18  1  0     0  0
 14 15  1  0     0  0
 14 19  2  0     0  0
 14 25  1  0     0  0
 15 20  2  0     0  0
 15 27  1  0     0  0
 16 21  2  0     0  0
 16 22  1  0     0  0
 16 29  1  0     0  0
 17 21  1  0     0  0
 18 22  2  0     0  0
 19 23  1  0     0  0
 20 24  1  0     0  0
 23 24  2  0     0  0
 26 31  1  0     0  0
 30 32  1  0     0  0
 32 33  1  0     0  0
 33 34  1  0     0  0
M  END
> <standard_type>
pIC50

> <# Confs.>
25

> <canonical_smiles>
ClC(N=C1CCCC)=C(CC(OC)=O)N1CC2=CC=C(NC(C3=CC=CC=C3C(O)=O)=O)C=C2

> <standard_relation>
=

> <Publication_ID>
nan

> <predicted_activity_value>
5.468521082957745

> <actual_activity_value>
6.853871964321762

> <Compound>
9

> <standard_units>
nM

> hash
16389122266415346093

$$$$
8
XXILIB    08252103503D 0   0.00000     0.00000

 34 36  0     1  0            999 V2000
    5.0080   -1.4815   -0.1021 Cl  0  0  0  0  0  1           0  0  0
    0.3717    0.1347    9.8366 O   0  0  0  0  0  2           0  0  0
    1.2658   -2.3011   -2.4169 O   0  0  0  0  0  2           0  0  0
   -0.7833   -1.5797    6.3267 O   0  0  0  0  0  2           0  0  0
    1.8058   -4.3462   -1.5016 O   0  0  0  0  0  2           0  0  0
    0.0392    0.7791    7.6756 O   0  0  0  0  0  2           0  0  0
    1.4519    0.0000   -0.0000 N   0  0  0  0  0  3           0  0  0
    3.5357    0.7699   -0.0300 N   0  0  0  0  0  3           0  0  0
   -2.1254    0.0120    5.3110 N   0  0  0  0  0  3           0  0  0
    3.5498   -0.5999   -0.0532 C   0  0  0  0  0  4           0  0  0
    2.2647    1.1169    0.0000 C   0  0  0  0  0  4           0  0  0
    2.2666   -1.1149   -0.0368 C   0  0  0  0  0  4           0  0  0
   -1.5762   -0.0184    4.0146 C   0  0  0  0  0  4           0  0  0
   -1.7677   -0.1334    8.8189 C   0  0  0  0  0  4           0  0  0
   -2.4224   -0.5618    7.6511 C   0  0  0  0  0  4           0  0  0
   -0.5415    0.0000    1.3968 C   0  0  0  0  0  4           0  0  0
   -0.5145   -0.8615    3.6712 C   0  0  0  0  0  4           0  0  0
   -2.1218    0.8297    3.0457 C   0  0  0  0  0  4           0  0  0
   -2.4697   -0.0443   10.0277 C   0  0  0  0  0  4           0  0  0
   -3.7883   -0.8760    7.7099 C   0  0  0  0  0  4           0  0  0
   -0.0042   -0.8528    2.3700 C   0  0  0  0  0  4           0  0  0
   -1.6092    0.8363    1.7462 C   0  0  0  0  0  4           0  0  0
   -3.8266   -0.3614   10.0722 C   0  0  0  0  0  4           0  0  0
   -4.4849   -0.7720    8.9154 C   0  0  0  0  0  4           0  0  0
   -0.3497    0.2617    8.8619 C   0  0  0  0  0  4           0  0  0
    1.5787   -2.9999   -1.4621 C   0  0  0  0  0  4           0  0  0
   -1.6993   -0.7613    6.3724 C   0  0  0  0  0  4           0  0  0
    1.6560   -4.9594   -2.7865 C   0  0  0  0  0  4           0  0  0
    0.0000    0.0000    0.0000 C   0  0  0  0  0  4           0  0  0
    1.7724    2.5193    0.0302 C   0  0  0  0  0  4           0  0  0
    1.7845   -2.5190   -0.0479 C   0  0  0  0  0  4           0  0  0
    1.5524    3.0862   -1.3688 C   0  0  0  0  0  4           0  0  0
    2.8044    3.1190   -2.2465 C   0  0  0  0  0  4           0  0  0
    2.5437    3.6906   -3.6323 C   0  0  0  0  0  4           0  0  0
  1 10  1  0     0  0
  2 25  2  0     0  0
  3 26  2  0     0  0
  4 27  2  0     0  0
  5 26  1  0     0  0
  5 28  1  0     0  0
  6 25  1  0     0  0
  7 11  1  0     0  0
  7 12  1  0     0  0
  7 29  1  0     0  0
  8 10  1  0     0  0
  8 11  2  0     0  0
  9 13  1  0     0  0
  9 27  1  0     0  0
 10 12  2  0     0  0
 11 30  1  0     0  0
 12 31  1  0     0  0
 13 17  2  0     0  0
 13 18  1  0     0  0
 14 15  1  0     0  0
 14 19  2  0     0  0
 14 25  1  0     0  0
 15 20  2  0     0  0
 15 27  1  0     0  0
 16 21  2  0     0  0
 16 22  1  0     0  0
 16 29  1  0     0  0
 17 21  1  0     0  0
 18 22  2  0     0  0
 19 23  1  0     0  0
 20 24  1  0     0  0
 23 24  2  0     0  0
 26 31  1  0     0  0
 30 32  1  0     0  0
 32 33  1  0     0  0
 33 34  1  0     0  0
M  END
> <standard_type>
pIC50

> <# Confs.>
25

> <canonical_smiles>
ClC(N=C1CCCC)=C(CC(OC)=O)N1CC2=CC=C(NC(C3=CC=CC=C3C(O)=O)=O)C=C2

> <standard_relation>
=

> <Publication_ID>
nan

> <predicted_activity_value>
5.468521082957745

> <actual_activity_value>
6.853871964321762

> <Compound>
9

> <standard_units>
nM

> hash
16389122266415346093

$$$$
8
XXILIB    08252103503D 0   0.00000     0.00000

 34 36  0     1  0            999 V2000
    5.0080   -1.4815   -0.1021 Cl  0  0  0  0  0  1           0  0  0
    0.3717    0.1347    9.8366 O   0  0  0  0  0  2           0  0  0
    1.2658   -2.3011   -2.4169 O   0  0  0  0  0  2           0  0  0
   -0.7833   -1.5797    6.3267 O   0  0  0  0  0  2           0  0  0
    1.8058   -4.3462   -1.5016 O   0  0  0  0  0  2           0  0  0
    0.0392    0.7791    7.6756 O   0  0  0  0  0  2           0  0  0
    1.4519    0.0000   -0.0000 N   0  0  0  0  0  3           0  0  0
    3.5357    0.7699   -0.0300 N   0  0  0  0  0  3           0  0  0
   -2.1254    0.0120    5.3110 N   0  0  0  0  0  3           0  0  0
    3.5498   -0.5999   -0.0532 C   0  0  0  0  0  4           0  0  0
    2.2647    1.1169    0.0000 C   0  0  0  0  0  4           0  0  0
    2.2666   -1.1149   -0.0368 C   0  0  0  0  0  4           0  0  0
   -1.5762   -0.0184    4.0146 C   0  0  0  0  0  4           0  0  0
   -1.7677   -0.1334    8.8189 C   0  0  0  0  0  4           0  0  0
   -2.4224   -0.5618    7.6511 C   0  0  0  0  0  4           0  0  0
   -0.5415    0.0000    1.3968 C   0  0  0  0  0  4           0  0  0
   -0.5145   -0.8615    3.6712 C   0  0  0  0  0  4           0  0  0
   -2.1218    0.8297    3.0457 C   0  0  0  0  0  4           0  0  0
   -2.4697   -0.0443   10.0277 C   0  0  0  0  0  4           0  0  0
   -3.7883   -0.8760    7.7099 C   0  0  0  0  0  4           0  0  0
   -0.0042   -0.8528    2.3700 C   0  0  0  0  0  4           0  0  0
   -1.6092    0.8363    1.7462 C   0  0  0  0  0  4           0  0  0
   -3.8266   -0.3614   10.0722 C   0  0  0  0  0  4           0  0  0
   -4.4849   -0.7720    8.9154 C   0  0  0  0  0  4           0  0  0
   -0.3497    0.2617    8.8619 C   0  0  0  0  0  4           0  0  0
    1.5787   -2.9999   -1.4621 C   0  0  0  0  0  4           0  0  0
   -1.6993   -0.7613    6.3724 C   0  0  0  0  0  4           0  0  0
    1.6560   -4.9594   -2.7865 C   0  0  0  0  0  4           0  0  0
    0.0000    0.0000    0.0000 C   0  0  0  0  0  4           0  0  0
    1.7724    2.5193    0.0302 C   0  0  0  0  0  4           0  0  0
    1.7845   -2.5190   -0.0479 C   0  0  0  0  0  4           0  0  0
    1.6088    3.0452    1.4528 C   0  0  0  0  0  4           0  0  0
    1.1039    4.4859    1.5447 C   0  0  0  0  0  4           0  0  0
    0.9542    4.9727    2.9785 C   0  0  0  0  0  4           0  0  0
  1 10  1  0     0  0
  2 25  2  0     0  0
  3 26  2  0     0  0
  4 27  2  0     0  0
  5 26  1  0     0  0
  5 28  1  0     0  0
  6 25  1  0     0  0
  7 11  1  0     0  0
  7 12  1  0     0  0
  7 29  1  0     0  0
  8 10  1  0     0  0
  8 11  2  0     0  0
  9 13  1  0     0  0
  9 27  1  0     0  0
 10 12  2  0     0  0
 11 30  1  0     0  0
 12 31  1  0     0  0
 13 17  2  0     0  0
 13 18  1  0     0  0
 14 15  1  0     0  0
 14 19  2  0     0  0
 14 25  1  0     0  0
 15 20  2  0     0  0
 15 27  1  0     0  0
 16 21  2  0     0  0
 16 22  1  0     0  0
 16 29  1  0     0  0
 17 21  1  0     0  0
 18 22  2  0     0  0
 19 23  1  0     0  0
 20 24  1  0     0  0
 23 24  2  0     0  0
 26 31  1  0     0  0
 30 32  1  0     0  0
 32 33  1  0     0  0
 33 34  1  0     0  0
M  END
> <standard_type>
pIC50

> <# Confs.>
25

> <canonical_smiles>
ClC(N=C1CCCC)=C(CC(OC)=O)N1CC2=CC=C(NC(C3=CC=CC=C3C(O)=O)=O)C=C2

> <standard_relation>
=

> <Publication_ID>
nan

> <predicted_activity_value>
5.468521082957745

> <actual_activity_value>
6.853871964321762

> <Compound>
9

> <standard_units>
nM

> hash
16389122266415346093

$$$$
8
XXILIB    08252103503D 0   0.00000     0.00000

 34 36  0     1  0            999 V2000
    5.0080   -1.4815   -0.1021 Cl  0  0  0  0  0  1           0  0  0
    0.3717    0.1347    9.8366 O   0  0  0  0  0  2           0  0  0
    1.2658   -2.3011   -2.4169 O   0  0  0  0  0  2           0  0  0
   -0.7833   -1.5797    6.3267 O   0  0  0  0  0  2           0  0  0
    1.8058   -4.3462   -1.5016 O   0  0  0  0  0  2           0  0  0
    0.0392    0.7791    7.6756 O   0  0  0  0  0  2           0  0  0
    1.4519    0.0000   -0.0000 N   0  0  0  0  0  3           0  0  0
    3.5357    0.7699   -0.0300 N   0  0  0  0  0  3           0  0  0
   -2.1254    0.0120    5.3110 N   0  0  0  0  0  3           0  0  0
    3.5498   -0.5999   -0.0532 C   0  0  0  0  0  4           0  0  0
    2.2647    1.1169    0.0000 C   0  0  0  0  0  4           0  0  0
    2.2666   -1.1149   -0.0368 C   0  0  0  0  0  4           0  0  0
   -1.5762   -0.0184    4.0146 C   0  0  0  0  0  4           0  0  0
   -1.7677   -0.1334    8.8189 C   0  0  0  0  0  4           0  0  0
   -2.4224   -0.5618    7.6511 C   0  0  0  0  0  4           0  0  0
   -0.5415    0.0000    1.3968 C   0  0  0  0  0  4           0  0  0
   -0.5145   -0.8615    3.6712 C   0  0  0  0  0  4           0  0  0
   -2.1218    0.8297    3.0457 C   0  0  0  0  0  4           0  0  0
   -2.4697   -0.0443   10.0277 C   0  0  0  0  0  4           0  0  0
   -3.7883   -0.8760    7.7099 C   0  0  0  0  0  4           0  0  0
   -0.0042   -0.8528    2.3700 C   0  0  0  0  0  4           0  0  0
   -1.6092    0.8363    1.7462 C   0  0  0  0  0  4           0  0  0
   -3.8266   -0.3614   10.0722 C   0  0  0  0  0  4           0  0  0
   -4.4849   -0.7720    8.9154 C   0  0  0  0  0  4           0  0  0
   -0.3497    0.2617    8.8619 C   0  0  0  0  0  4           0  0  0
    1.5787   -2.9999   -1.4621 C   0  0  0  0  0  4           0  0  0
   -1.6993   -0.7613    6.3724 C   0  0  0  0  0  4           0  0  0
    1.6560   -4.9594   -2.7865 C   0  0  0  0  0  4           0  0  0
    0.0000    0.0000    0.0000 C   0  0  0  0  0  4           0  0  0
    1.7724    2.5193    0.0302 C   0  0  0  0  0  4           0  0  0
    1.7845   -2.5190   -0.0479 C   0  0  0  0  0  4           0  0  0
    2.5419    3.3820    1.0256 C   0  0  0  0  0  4           0  0  0
    2.4695    2.8997    2.4751 C   0  0  0  0  0  4           0  0  0
    3.2488    3.7857    3.4357 C   0  0  0  0  0  4           0  0  0
  1 10  1  0     0  0
  2 25  2  0     0  0
  3 26  2  0     0  0
  4 27  2  0     0  0
  5 26  1  0     0  0
  5 28  1  0     0  0
  6 25  1  0     0  0
  7 11  1  0     0  0
  7 12  1  0     0  0
  7 29  1  0     0  0
  8 10  1  0     0  0
  8 11  2  0     0  0
  9 13  1  0     0  0
  9 27  1  0     0  0
 10 12  2  0     0  0
 11 30  1  0     0  0
 12 31  1  0     0  0
 13 17  2  0     0  0
 13 18  1  0     0  0
 14 15  1  0     0  0
 14 19  2  0     0  0
 14 25  1  0     0  0
 15 20  2  0     0  0
 15 27  1  0     0  0
 16 21  2  0     0  0
 16 22  1  0     0  0
 16 29  1  0     0  0
 17 21  1  0     0  0
 18 22  2  0     0  0
 19 23  1  0     0  0
 20 24  1  0     0  0
 23 24  2  0     0  0
 26 31  1  0     0  0
 30 32  1  0     0  0
 32 33  1  0     0  0
 33 34  1  0     0  0
M  END
> <standard_type>
pIC50

> <# Confs.>
25

> <canonical_smiles>
ClC(N=C1CCCC)=C(CC(OC)=O)N1CC2=CC=C(NC(C3=CC=CC=C3C(O)=O)=O)C=C2

> <standard_relation>
=

> <Publication_ID>
nan

> <predicted_activity_value>
5.468521082957745

> <actual_activity_value>
6.853871964321762

> <Compound>
9

> <standard_units>
nM

> hash
16389122266415346093

$$$$
8
XXILIB    08252103503D 0   0.00000     0.00000

 34 36  0     1  0            999 V2000
    5.0080   -1.4815   -0.1021 Cl  0  0  0  0  0  1           0  0  0
   -3.1411   -3.9022    8.4747 O   0  0  0  0  0  2           0  0  0
    1.2658   -2.3011   -2.4169 O   0  0  0  0  0  2           0  0  0
   -3.7075   -1.5566    5.1930 O   0  0  0  0  0  2           0  0  0
    1.8058   -4.3462   -1.5016 O   0  0  0  0  0  2           0  0  0
   -1.8554   -2.8111    6.9411 O   0  0  0  0  0  2           0  0  0
    1.4519    0.0000   -0.0000 N   0  0  0  0  0  3           0  0  0
    3.5357    0.7699   -0.0300 N   0  0  0  0  0  3           0  0  0
   -2.0565    0.0619    5.3377 N   0  0  0  0  0  3           0  0  0
    3.5498   -0.5999   -0.0532 C   0  0  0  0  0  4           0  0  0
    2.2647    1.1169    0.0000 C   0  0  0  0  0  4           0  0  0
    2.2666   -1.1149   -0.0368 C   0  0  0  0  0  4           0  0  0
   -1.5761    0.0185    4.0147 C   0  0  0  0  0  4           0  0  0
   -3.3276   -1.5396    8.2141 C   0  0  0  0  0  4           0  0  0
   -3.4190   -0.5071    7.2647 C   0  0  0  0  0  4           0  0  0
   -0.5415   -0.0000    1.3968 C   0  0  0  0  0  4           0  0  0
   -2.1078   -0.8473    3.0535 C   0  0  0  0  0  4           0  0  0
   -0.5301    0.8773    3.6628 C   0  0  0  0  0  4           0  0  0
   -3.7437   -1.3220    9.5338 C   0  0  0  0  0  4           0  0  0
   -3.9102    0.7452    7.6627 C   0  0  0  0  0  4           0  0  0
   -1.5944   -0.8528    1.7534 C   0  0  0  0  0  4           0  0  0
   -0.0190    0.8692    2.3627 C   0  0  0  0  0  4           0  0  0
   -4.2316   -0.0730    9.9152 C   0  0  0  0  0  4           0  0  0
   -4.3106    0.9590    8.9830 C   0  0  0  0  0  4           0  0  0
   -2.7884   -2.8773    7.9165 C   0  0  0  0  0  4           0  0  0
    1.5787   -2.9999   -1.4621 C   0  0  0  0  0  4           0  0  0
   -3.0796   -0.7191    5.8372 C   0  0  0  0  0  4           0  0  0
    1.6560   -4.9594   -2.7865 C   0  0  0  0  0  4           0  0  0
    0.0000    0.0000    0.0000 C   0  0  0  0  0  4           0  0  0
    1.7724    2.5193    0.0302 C   0  0  0  0  0  4           0  0  0
    1.7845   -2.5190   -0.0479 C   0  0  0  0  0  4           0  0  0
    2.5020    3.4110   -0.9696 C   0  0  0  0  0  4           0  0  0
    2.0357    4.8675   -0.9821 C   0  0  0  0  0  4           0  0  0
    2.7868    5.7231   -1.9914 C   0  0  0  0  0  4           0  0  0
  1 10  1  0     0  0
  2 25  2  0     0  0
  3 26  2  0     0  0
  4 27  2  0     0  0
  5 26  1  0     0  0
  5 28  1  0     0  0
  6 25  1  0     0  0
  7 11  1  0     0  0
  7 12  1  0     0  0
  7 29  1  0     0  0
  8 10  1  0     0  0
  8 11  2  0     0  0
  9 13  1  0     0  0
  9 27  1  0     0  0
 10 12  2  0     0  0
 11 30  1  0     0  0
 12 31  1  0     0  0
 13 17  2  0     0  0
 13 18  1  0     0  0
 14 15  1  0     0  0
 14 19  2  0     0  0
 14 25  1  0     0  0
 15 20  2  0     0  0
 15 27  1  0     0  0
 16 21  2  0     0  0
 16 22  1  0     0  0
 16 29  1  0     0  0
 17 21  1  0     0  0
 18 22  2  0     0  0
 19 23  1  0     0  0
 20 24  1  0     0  0
 23 24  2  0     0  0
 26 31  1  0     0  0
 30 32  1  0     0  0
 32 33  1  0     0  0
 33 34  1  0     0  0
M  END
> <standard_type>
pIC50

> <# Confs.>
25

> <canonical_smiles>
ClC(N=C1CCCC)=C(CC(OC)=O)N1CC2=CC=C(NC(C3=CC=CC=C3C(O)=O)=O)C=C2

> <standard_relation>
=

> <Publication_ID>
nan

> <predicted_activity_value>
5.468521082957745

> <actual_activity_value>
6.853871964321762

> <Compound>
9

> <standard_units>
nM

> hash
16389122266415346093

$$$$
8
XXILIB    08252103503D 0   0.00000     0.00000

 34 36  0     1  0            999 V2000
    5.0080    1.4815    0.1021 Cl  0  0  0  0  0  1           0  0  0
    0.3717    0.1347    9.8366 O   0  0  0  0  0  2           0  0  0
    1.3773    2.3771   -2.3484 O   0  0  0  0  0  2           0  0  0
   -0.7833   -1.5797    6.3267 O   0  0  0  0  0  2           0  0  0
    1.8605    4.3935   -1.3423 O   0  0  0  0  0  2           0  0  0
    0.0392    0.7791    7.6756 O   0  0  0  0  0  2           0  0  0
    1.4519    0.0000    0.0000 N   0  0  0  0  0  3           0  0  0
    3.5357   -0.7699    0.0300 N   0  0  0  0  0  3           0  0  0
   -2.1254    0.0120    5.3110 N   0  0  0  0  0  3           0  0  0
    3.5498    0.5999    0.0532 C   0  0  0  0  0  4           0  0  0
    2.2647   -1.1169    0.0000 C   0  0  0  0  0  4           0  0  0
    2.2666    1.1149    0.0368 C   0  0  0  0  0  4           0  0  0
   -1.5762   -0.0184    4.0146 C   0  0  0  0  0  4           0  0  0
   -1.7677   -0.1334    8.8189 C   0  0  0  0  0  4           0  0  0
   -2.4224   -0.5618    7.6511 C   0  0  0  0  0  4           0  0  0
   -0.5415    0.0000    1.3968 C   0  0  0  0  0  4           0  0  0
   -0.5145   -0.8615    3.6712 C   0  0  0  0  0  4           0  0  0
   -2.1218    0.8297    3.0457 C   0  0  0  0  0  4           0  0  0
   -2.4697   -0.0443   10.0277 C   0  0  0  0  0  4           0  0  0
   -3.7883   -0.8760    7.7099 C   0  0  0  0  0  4           0  0  0
   -0.0042   -0.8528    2.3700 C   0  0  0  0  0  4           0  0  0
   -1.6092    0.8363    1.7462 C   0  0  0  0  0  4           0  0  0
   -3.8266   -0.3614   10.0722 C   0  0  0  0  0  4           0  0  0
   -4.4849   -0.7720    8.9154 C   0  0  0  0  0  4           0  0  0
   -0.3497    0.2617    8.8619 C   0  0  0  0  0  4           0  0  0
    1.6447    3.0448   -1.3583 C   0  0  0  0  0  4           0  0  0
   -1.6993   -0.7613    6.3724 C   0  0  0  0  0  4           0  0  0
    1.7570    5.0497   -2.6104 C   0  0  0  0  0  4           0  0  0
    0.0000    0.0000    0.0000 C   0  0  0  0  0  4           0  0  0
    1.7724   -2.5193   -0.0302 C   0  0  0  0  0  4           0  0  0
    1.7845    2.5190    0.0479 C   0  0  0  0  0  4           0  0  0
    1.6088   -3.0452   -1.4528 C   0  0  0  0  0  4           0  0  0
    1.1039   -4.4859   -1.5447 C   0  0  0  0  0  4           0  0  0
    0.9542   -4.9727   -2.9785 C   0  0  0  0  0  4           0  0  0
  1 10  1  0     0  0
  2 25  2  0     0  0
  3 26  2  0     0  0
  4 27  2  0     0  0
  5 26  1  0     0  0
  5 28  1  0     0  0
  6 25  1  0     0  0
  7 11  1  0     0  0
  7 12  1  0     0  0
  7 29  1  0     0  0
  8 10  1  0     0  0
  8 11  2  0     0  0
  9 13  1  0     0  0
  9 27  1  0     0  0
 10 12  2  0     0  0
 11 30  1  0     0  0
 12 31  1  0     0  0
 13 17  2  0     0  0
 13 18  1  0     0  0
 14 15  1  0     0  0
 14 19  2  0     0  0
 14 25  1  0     0  0
 15 20  2  0     0  0
 15 27  1  0     0  0
 16 21  2  0     0  0
 16 22  1  0     0  0
 16 29  1  0     0  0
 17 21  1  0     0  0
 18 22  2  0     0  0
 19 23  1  0     0  0
 20 24  1  0     0  0
 23 24  2  0     0  0
 26 31  1  0     0  0
 30 32  1  0     0  0
 32 33  1  0     0  0
 33 34  1  0     0  0
M  END
> <standard_type>
pIC50

> <# Confs.>
25

> <canonical_smiles>
ClC(N=C1CCCC)=C(CC(OC)=O)N1CC2=CC=C(NC(C3=CC=CC=C3C(O)=O)=O)C=C2

> <standard_relation>
=

> <Publication_ID>
nan

> <predicted_activity_value>
5.468521082957745

> <actual_activity_value>
6.853871964321762

> <Compound>
9

> <standard_units>
nM

> hash
16389122266415346093

$$$$
8
XXILIB    08252103503D 0   0.00000     0.00000

 34 36  0     1  0            999 V2000
    5.0080    1.4815    0.1021 Cl  0  0  0  0  0  1           0  0  0
    0.3717    0.1347    9.8366 O   0  0  0  0  0  2           0  0  0
    1.3773    2.3771   -2.3484 O   0  0  0  0  0  2           0  0  0
   -0.7833   -1.5797    6.3267 O   0  0  0  0  0  2           0  0  0
    1.8605    4.3935   -1.3423 O   0  0  0  0  0  2           0  0  0
    0.0392    0.7791    7.6756 O   0  0  0  0  0  2           0  0  0
    1.4519    0.0000    0.0000 N   0  0  0  0  0  3           0  0  0
    3.5357   -0.7699    0.0300 N   0  0  0  0  0  3           0  0  0
   -2.1254    0.0120    5.3110 N   0  0  0  0  0  3           0  0  0
    3.5498    0.5999    0.0532 C   0  0  0  0  0  4           0  0  0
    2.2647   -1.1169    0.0000 C   0  0  0  0  0  4           0  0  0
    2.2666    1.1149    0.0368 C   0  0  0  0  0  4           0  0  0
   -1.5762   -0.0184    4.0146 C   0  0  0  0  0  4           0  0  0
   -1.7677   -0.1334    8.8189 C   0  0  0  0  0  4           0  0  0
   -2.4224   -0.5618    7.6511 C   0  0  0  0  0  4           0  0  0
   -0.5415    0.0000    1.3968 C   0  0  0  0  0  4           0  0  0
   -0.5145   -0.8615    3.6712 C   0  0  0  0  0  4           0  0  0
   -2.1218    0.8297    3.0457 C   0  0  0  0  0  4           0  0  0
   -2.4697   -0.0443   10.0277 C   0  0  0  0  0  4           0  0  0
   -3.7883   -0.8760    7.7099 C   0  0  0  0  0  4           0  0  0
   -0.0042   -0.8528    2.3700 C   0  0  0  0  0  4           0  0  0
   -1.6092    0.8363    1.7462 C   0  0  0  0  0  4           0  0  0
   -3.8266   -0.3614   10.0722 C   0  0  0  0  0  4           0  0  0
   -4.4849   -0.7720    8.9154 C   0  0  0  0  0  4           0  0  0
   -0.3497    0.2617    8.8619 C   0  0  0  0  0  4           0  0  0
    1.6447    3.0448   -1.3583 C   0  0  0  0  0  4           0  0  0
   -1.6993   -0.7613    6.3724 C   0  0  0  0  0  4           0  0  0
    1.7570    5.0497   -2.6104 C   0  0  0  0  0  4           0  0  0
    0.0000    0.0000    0.0000 C   0  0  0  0  0  4           0  0  0
    1.7724   -2.5193   -0.0302 C   0  0  0  0  0  4           0  0  0
    1.7845    2.5190    0.0479 C   0  0  0  0  0  4           0  0  0
    2.5419   -3.3820   -1.0256 C   0  0  0  0  0  4           0  0  0
    2.4695   -2.8997   -2.4751 C   0  0  0  0  0  4           0  0  0
    3.2488   -3.7857   -3.4357 C   0  0  0  0  0  4           0  0  0
  1 10  1  0     0  0
  2 25  2  0     0  0
  3 26  2  0     0  0
  4 27  2  0     0  0
  5 26  1  0     0  0
  5 28  1  0     0  0
  6 25  1  0     0  0
  7 11  1  0     0  0
  7 12  1  0     0  0
  7 29  1  0     0  0
  8 10  1  0     0  0
  8 11  2  0     0  0
  9 13  1  0     0  0
  9 27  1  0     0  0
 10 12  2  0     0  0
 11 30  1  0     0  0
 12 31  1  0     0  0
 13 17  2  0     0  0
 13 18  1  0     0  0
 14 15  1  0     0  0
 14 19  2  0     0  0
 14 25  1  0     0  0
 15 20  2  0     0  0
 15 27  1  0     0  0
 16 21  2  0     0  0
 16 22  1  0     0  0
 16 29  1  0     0  0
 17 21  1  0     0  0
 18 22  2  0     0  0
 19 23  1  0     0  0
 20 24  1  0     0  0
 23 24  2  0     0  0
 26 31  1  0     0  0
 30 32  1  0     0  0
 32 33  1  0     0  0
 33 34  1  0     0  0
M  END
> <standard_type>
pIC50

> <# Confs.>
25

> <canonical_smiles>
ClC(N=C1CCCC)=C(CC(OC)=O)N1CC2=CC=C(NC(C3=CC=CC=C3C(O)=O)=O)C=C2

> <standard_relation>
=

> <Publication_ID>
nan

> <predicted_activity_value>
5.468521082957745

> <actual_activity_value>
6.853871964321762

> <Compound>
9

> <standard_units>
nM

> hash
16389122266415346093

$$$$
8
XXILIB    08252103503D 0   0.00000     0.00000

 34 36  0     1  0            999 V2000
    5.0080   -1.4815   -0.1021 Cl  0  0  0  0  0  1           0  0  0
   -3.1411   -3.9022    8.4747 O   0  0  0  0  0  2           0  0  0
    1.2658   -2.3011   -2.4169 O   0  0  0  0  0  2           0  0  0
   -3.7075   -1.5566    5.1930 O   0  0  0  0  0  2           0  0  0
    1.8058   -4.3462   -1.5016 O   0  0  0  0  0  2           0  0  0
   -1.8554   -2.8111    6.9411 O   0  0  0  0  0  2           0  0  0
    1.4519    0.0000   -0.0000 N   0  0  0  0  0  3           0  0  0
    3.5357    0.7699   -0.0300 N   0  0  0  0  0  3           0  0  0
   -2.0565    0.0619    5.3377 N   0  0  0  0  0  3           0  0  0
    3.5498   -0.5999   -0.0532 C   0  0  0  0  0  4           0  0  0
    2.2647    1.1169    0.0000 C   0  0  0  0  0  4           0  0  0
    2.2666   -1.1149   -0.0368 C   0  0  0  0  0  4           0  0  0
   -1.5761    0.0185    4.0147 C   0  0  0  0  0  4           0  0  0
   -3.3276   -1.5396    8.2141 C   0  0  0  0  0  4           0  0  0
   -3.4190   -0.5071    7.2647 C   0  0  0  0  0  4           0  0  0
   -0.5415   -0.0000    1.3968 C   0  0  0  0  0  4           0  0  0
   -2.1078   -0.8473    3.0535 C   0  0  0  0  0  4           0  0  0
   -0.5301    0.8773    3.6628 C   0  0  0  0  0  4           0  0  0
   -3.7437   -1.3220    9.5338 C   0  0  0  0  0  4           0  0  0
   -3.9102    0.7452    7.6627 C   0  0  0  0  0  4           0  0  0
   -1.5944   -0.8528    1.7534 C   0  0  0  0  0  4           0  0  0
   -0.0190    0.8692    2.3627 C   0  0  0  0  0  4           0  0  0
   -4.2316   -0.0730    9.9152 C   0  0  0  0  0  4           0  0  0
   -4.3106    0.9590    8.9830 C   0  0  0  0  0  4           0  0  0
   -2.7884   -2.8773    7.9165 C   0  0  0  0  0  4           0  0  0
    1.5787   -2.9999   -1.4621 C   0  0  0  0  0  4           0  0  0
   -3.0796   -0.7191    5.8372 C   0  0  0  0  0  4           0  0  0
    1.6560   -4.9594   -2.7865 C   0  0  0  0  0  4           0  0  0
    0.0000    0.0000    0.0000 C   0  0  0  0  0  4           0  0  0
    1.7724    2.5193    0.0302 C   0  0  0  0  0  4           0  0  0
    1.7845   -2.5190   -0.0479 C   0  0  0  0  0  4           0  0  0
    2.5419    3.3820    1.0256 C   0  0  0  0  0  4           0  0  0
    2.0773    4.8372    1.0991 C   0  0  0  0  0  4           0  0  0
    2.8686    5.6636    2.1020 C   0  0  0  0  0  4           0  0  0
  1 10  1  0     0  0
  2 25  2  0     0  0
  3 26  2  0     0  0
  4 27  2  0     0  0
  5 26  1  0     0  0
  5 28  1  0     0  0
  6 25  1  0     0  0
  7 11  1  0     0  0
  7 12  1  0     0  0
  7 29  1  0     0  0
  8 10  1  0     0  0
  8 11  2  0     0  0
  9 13  1  0     0  0
  9 27  1  0     0  0
 10 12  2  0     0  0
 11 30  1  0     0  0
 12 31  1  0     0  0
 13 17  2  0     0  0
 13 18  1  0     0  0
 14 15  1  0     0  0
 14 19  2  0     0  0
 14 25  1  0     0  0
 15 20  2  0     0  0
 15 27  1  0     0  0
 16 21  2  0     0  0
 16 22  1  0     0  0
 16 29  1  0     0  0
 17 21  1  0     0  0
 18 22  2  0     0  0
 19 23  1  0     0  0
 20 24  1  0     0  0
 23 24  2  0     0  0
 26 31  1  0     0  0
 30 32  1  0     0  0
 32 33  1  0     0  0
 33 34  1  0     0  0
M  END
> <standard_type>
pIC50

> <# Confs.>
25

> <canonical_smiles>
ClC(N=C1CCCC)=C(CC(OC)=O)N1CC2=CC=C(NC(C3=CC=CC=C3C(O)=O)=O)C=C2

> <standard_relation>
=

> <Publication_ID>
nan

> <predicted_activity_value>
5.468521082957745

> <actual_activity_value>
6.853871964321762

> <Compound>
9

> <standard_units>
nM

> hash
16389122266415346093

$$$$
8
XXILIB    08252103503D 0   0.00000     0.00000

 34 36  0     1  0            999 V2000
    5.0080   -1.4815   -0.1021 Cl  0  0  0  0  0  1           0  0  0
    0.3717    0.1347    9.8366 O   0  0  0  0  0  2           0  0  0
    1.2658   -2.3011   -2.4169 O   0  0  0  0  0  2           0  0  0
   -0.7833   -1.5797    6.3267 O   0  0  0  0  0  2           0  0  0
    1.8058   -4.3462   -1.5016 O   0  0  0  0  0  2           0  0  0
    0.0392    0.7791    7.6756 O   0  0  0  0  0  2           0  0  0
    1.4519    0.0000   -0.0000 N   0  0  0  0  0  3           0  0  0
    3.5357    0.7699   -0.0300 N   0  0  0  0  0  3           0  0  0
   -2.1254    0.0120    5.3110 N   0  0  0  0  0  3           0  0  0
    3.5498   -0.5999   -0.0532 C   0  0  0  0  0  4           0  0  0
    2.2647    1.1169    0.0000 C   0  0  0  0  0  4           0  0  0
    2.2666   -1.1149   -0.0368 C   0  0  0  0  0  4           0  0  0
   -1.5762   -0.0184    4.0146 C   0  0  0  0  0  4           0  0  0
   -1.7677   -0.1334    8.8189 C   0  0  0  0  0  4           0  0  0
   -2.4224   -0.5618    7.6511 C   0  0  0  0  0  4           0  0  0
   -0.5415    0.0000    1.3968 C   0  0  0  0  0  4           0  0  0
   -0.5145   -0.8615    3.6712 C   0  0  0  0  0  4           0  0  0
   -2.1218    0.8297    3.0457 C   0  0  0  0  0  4           0  0  0
   -2.4697   -0.0443   10.0277 C   0  0  0  0  0  4           0  0  0
   -3.7883   -0.8760    7.7099 C   0  0  0  0  0  4           0  0  0
   -0.0042   -0.8528    2.3700 C   0  0  0  0  0  4           0  0  0
   -1.6092    0.8363    1.7462 C   0  0  0  0  0  4           0  0  0
   -3.8266   -0.3614   10.0722 C   0  0  0  0  0  4           0  0  0
   -4.4849   -0.7720    8.9154 C   0  0  0  0  0  4           0  0  0
   -0.3497    0.2617    8.8619 C   0  0  0  0  0  4           0  0  0
    1.5787   -2.9999   -1.4621 C   0  0  0  0  0  4           0  0  0
   -1.6993   -0.7613    6.3724 C   0  0  0  0  0  4           0  0  0
    1.6560   -4.9594   -2.7865 C   0  0  0  0  0  4           0  0  0
    0.0000    0.0000    0.0000 C   0  0  0  0  0  4           0  0  0
    1.7724    2.5193    0.0302 C   0  0  0  0  0  4           0  0  0
    1.7845   -2.5190   -0.0479 C   0  0  0  0  0  4           0  0  0
    2.9119    3.5335    0.0222 C   0  0  0  0  0  4           0  0  0
    2.4632    4.9952    0.0524 C   0  0  0  0  0  4           0  0  0
    3.6277    5.9745    0.0434 C   0  0  0  0  0  4           0  0  0
  1 10  1  0     0  0
  2 25  2  0     0  0
  3 26  2  0     0  0
  4 27  2  0     0  0
  5 26  1  0     0  0
  5 28  1  0     0  0
  6 25  1  0     0  0
  7 11  1  0     0  0
  7 12  1  0     0  0
  7 29  1  0     0  0
  8 10  1  0     0  0
  8 11  2  0     0  0
  9 13  1  0     0  0
  9 27  1  0     0  0
 10 12  2  0     0  0
 11 30  1  0     0  0
 12 31  1  0     0  0
 13 17  2  0     0  0
 13 18  1  0     0  0
 14 15  1  0     0  0
 14 19  2  0     0  0
 14 25  1  0     0  0
 15 20  2  0     0  0
 15 27  1  0     0  0
 16 21  2  0     0  0
 16 22  1  0     0  0
 16 29  1  0     0  0
 17 21  1  0     0  0
 18 22  2  0     0  0
 19 23  1  0     0  0
 20 24  1  0     0  0
 23 24  2  0     0  0
 26 31  1  0     0  0
 30 32  1  0     0  0
 32 33  1  0     0  0
 33 34  1  0     0  0
M  END
> <standard_type>
pIC50

> <# Confs.>
25

> <canonical_smiles>
ClC(N=C1CCCC)=C(CC(OC)=O)N1CC2=CC=C(NC(C3=CC=CC=C3C(O)=O)=O)C=C2

> <standard_relation>
=

> <Publication_ID>
nan

> <predicted_activity_value>
5.468521082957745

> <actual_activity_value>
6.853871964321762

> <Compound>
9

> <standard_units>
nM

> hash
16389122266415346093

$$$$
8
XXILIB    08252103503D 0   0.00000     0.00000

 34 36  0     1  0            999 V2000
    5.0080   -1.4815   -0.1021 Cl  0  0  0  0  0  1           0  0  0
   -1.6552   -3.0911    7.5209 O   0  0  0  0  0  2           0  0  0
    1.2658   -2.3011   -2.4169 O   0  0  0  0  0  2           0  0  0
   -3.7075   -1.5566    5.1930 O   0  0  0  0  0  2           0  0  0
    1.8058   -4.3462   -1.5016 O   0  0  0  0  0  2           0  0  0
   -3.7192   -3.8301    8.1448 O   0  0  0  0  0  2           0  0  0
    1.4519    0.0000   -0.0000 N   0  0  0  0  0  3           0  0  0
    3.5357    0.7699   -0.0300 N   0  0  0  0  0  3           0  0  0
   -2.0565    0.0619    5.3377 N   0  0  0  0  0  3           0  0  0
    3.5498   -0.5999   -0.0532 C   0  0  0  0  0  4           0  0  0
    2.2647    1.1169    0.0000 C   0  0  0  0  0  4           0  0  0
    2.2666   -1.1149   -0.0368 C   0  0  0  0  0  4           0  0  0
   -1.5761    0.0185    4.0147 C   0  0  0  0  0  4           0  0  0
   -3.3276   -1.5396    8.2141 C   0  0  0  0  0  4           0  0  0
   -3.4190   -0.5071    7.2647 C   0  0  0  0  0  4           0  0  0
   -0.5415   -0.0000    1.3968 C   0  0  0  0  0  4           0  0  0
   -2.1078   -0.8473    3.0535 C   0  0  0  0  0  4           0  0  0
   -0.5301    0.8773    3.6628 C   0  0  0  0  0  4           0  0  0
   -3.7437   -1.3220    9.5338 C   0  0  0  0  0  4           0  0  0
   -3.9102    0.7452    7.6627 C   0  0  0  0  0  4           0  0  0
   -1.5944   -0.8528    1.7534 C   0  0  0  0  0  4           0  0  0
   -0.0190    0.8692    2.3627 C   0  0  0  0  0  4           0  0  0
   -4.2316   -0.0730    9.9152 C   0  0  0  0  0  4           0  0  0
   -4.3106    0.9590    8.9830 C   0  0  0  0  0  4           0  0  0
   -2.7884   -2.8773    7.9165 C   0  0  0  0  0  4           0  0  0
    1.5787   -2.9999   -1.4621 C   0  0  0  0  0  4           0  0  0
   -3.0796   -0.7191    5.8372 C   0  0  0  0  0  4           0  0  0
    1.6560   -4.9594   -2.7865 C   0  0  0  0  0  4           0  0  0
    0.0000    0.0000    0.0000 C   0  0  0  0  0  4           0  0  0
    1.7724    2.5193    0.0302 C   0  0  0  0  0  4           0  0  0
    1.7845   -2.5190   -0.0479 C   0  0  0  0  0  4           0  0  0
    2.5020    3.4110   -0.9696 C   0  0  0  0  0  4           0  0  0
    2.3715    2.9710   -2.4284 C   0  0  0  0  0  4           0  0  0
    3.1123    3.8850   -3.3932 C   0  0  0  0  0  4           0  0  0
  1 10  1  0     0  0
  2 25  2  0     0  0
  3 26  2  0     0  0
  4 27  2  0     0  0
  5 26  1  0     0  0
  5 28  1  0     0  0
  6 25  1  0     0  0
  7 11  1  0     0  0
  7 12  1  0     0  0
  7 29  1  0     0  0
  8 10  1  0     0  0
  8 11  2  0     0  0
  9 13  1  0     0  0
  9 27  1  0     0  0
 10 12  2  0     0  0
 11 30  1  0     0  0
 12 31  1  0     0  0
 13 17  2  0     0  0
 13 18  1  0     0  0
 14 15  1  0     0  0
 14 19  2  0     0  0
 14 25  1  0     0  0
 15 20  2  0     0  0
 15 27  1  0     0  0
 16 21  2  0     0  0
 16 22  1  0     0  0
 16 29  1  0     0  0
 17 21  1  0     0  0
 18 22  2  0     0  0
 19 23  1  0     0  0
 20 24  1  0     0  0
 23 24  2  0     0  0
 26 31  1  0     0  0
 30 32  1  0     0  0
 32 33  1  0     0  0
 33 34  1  0     0  0
M  END
> <standard_type>
pIC50

> <# Confs.>
25

> <canonical_smiles>
ClC(N=C1CCCC)=C(CC(OC)=O)N1CC2=CC=C(NC(C3=CC=CC=C3C(O)=O)=O)C=C2

> <standard_relation>
=

> <Publication_ID>
nan

> <predicted_activity_value>
5.468521082957745

> <actual_activity_value>
6.853871964321762

> <Compound>
9

> <standard_units>
nM

> hash
16389122266415346093

$$$$
8
XXILIB    08252103503D 0   0.00000     0.00000

 34 36  0     1  0            999 V2000
    5.0080    1.4815    0.1021 Cl  0  0  0  0  0  1           0  0  0
    0.3717    0.1347    9.8366 O   0  0  0  0  0  2           0  0  0
    1.3773    2.3771   -2.3484 O   0  0  0  0  0  2           0  0  0
   -0.7833   -1.5797    6.3267 O   0  0  0  0  0  2           0  0  0
    1.8605    4.3935   -1.3423 O   0  0  0  0  0  2           0  0  0
    0.0392    0.7791    7.6756 O   0  0  0  0  0  2           0  0  0
    1.4519    0.0000    0.0000 N   0  0  0  0  0  3           0  0  0
    3.5357   -0.7699    0.0300 N   0  0  0  0  0  3           0  0  0
   -2.1254    0.0120    5.3110 N   0  0  0  0  0  3           0  0  0
    3.5498    0.5999    0.0532 C   0  0  0  0  0  4           0  0  0
    2.2647   -1.1169    0.0000 C   0  0  0  0  0  4           0  0  0
    2.2666    1.1149    0.0368 C   0  0  0  0  0  4           0  0  0
   -1.5762   -0.0184    4.0146 C   0  0  0  0  0  4           0  0  0
   -1.7677   -0.1334    8.8189 C   0  0  0  0  0  4           0  0  0
   -2.4224   -0.5618    7.6511 C   0  0  0  0  0  4           0  0  0
   -0.5415    0.0000    1.3968 C   0  0  0  0  0  4           0  0  0
   -0.5145   -0.8615    3.6712 C   0  0  0  0  0  4           0  0  0
   -2.1218    0.8297    3.0457 C   0  0  0  0  0  4           0  0  0
   -2.4697   -0.0443   10.0277 C   0  0  0  0  0  4           0  0  0
   -3.7883   -0.8760    7.7099 C   0  0  0  0  0  4           0  0  0
   -0.0042   -0.8528    2.3700 C   0  0  0  0  0  4           0  0  0
   -1.6092    0.8363    1.7462 C   0  0  0  0  0  4           0  0  0
   -3.8266   -0.3614   10.0722 C   0  0  0  0  0  4           0  0  0
   -4.4849   -0.7720    8.9154 C   0  0  0  0  0  4           0  0  0
   -0.3497    0.2617    8.8619 C   0  0  0  0  0  4           0  0  0
    1.6447    3.0448   -1.3583 C   0  0  0  0  0  4           0  0  0
   -1.6993   -0.7613    6.3724 C   0  0  0  0  0  4           0  0  0
    1.7570    5.0497   -2.6104 C   0  0  0  0  0  4           0  0  0
    0.0000    0.0000    0.0000 C   0  0  0  0  0  4           0  0  0
    1.7724   -2.5193   -0.0302 C   0  0  0  0  0  4           0  0  0
    1.7845    2.5190    0.0479 C   0  0  0  0  0  4           0  0  0
    2.5020   -3.4110    0.9696 C   0  0  0  0  0  4           0  0  0
    2.0357   -4.8675    0.9821 C   0  0  0  0  0  4           0  0  0
    2.7868   -5.7231    1.9914 C   0  0  0  0  0  4           0  0  0
  1 10  1  0     0  0
  2 25  2  0     0  0
  3 26  2  0     0  0
  4 27  2  0     0  0
  5 26  1  0     0  0
  5 28  1  0     0  0
  6 25  1  0     0  0
  7 11  1  0     0  0
  7 12  1  0     0  0
  7 29  1  0     0  0
  8 10  1  0     0  0
  8 11  2  0     0  0
  9 13  1  0     0  0
  9 27  1  0     0  0
 10 12  2  0     0  0
 11 30  1  0     0  0
 12 31  1  0     0  0
 13 17  2  0     0  0
 13 18  1  0     0  0
 14 15  1  0     0  0
 14 19  2  0     0  0
 14 25  1  0     0  0
 15 20  2  0     0  0
 15 27  1  0     0  0
 16 21  2  0     0  0
 16 22  1  0     0  0
 16 29  1  0     0  0
 17 21  1  0     0  0
 18 22  2  0     0  0
 19 23  1  0     0  0
 20 24  1  0     0  0
 23 24  2  0     0  0
 26 31  1  0     0  0
 30 32  1  0     0  0
 32 33  1  0     0  0
 33 34  1  0     0  0
M  END
> <standard_type>
pIC50

> <# Confs.>
25

> <canonical_smiles>
ClC(N=C1CCCC)=C(CC(OC)=O)N1CC2=CC=C(NC(C3=CC=CC=C3C(O)=O)=O)C=C2

> <standard_relation>
=

> <Publication_ID>
nan

> <predicted_activity_value>
5.468521082957745

> <actual_activity_value>
6.853871964321762

> <Compound>
9

> <standard_units>
nM

> hash
16389122266415346093

$$$$
8
XXILIB    08252103503D 0   0.00000     0.00000

 34 36  0     1  0            999 V2000
    5.0080   -1.4815   -0.1021 Cl  0  0  0  0  0  1           0  0  0
    0.1310    1.1754    8.2134 O   0  0  0  0  0  2           0  0  0
    1.2658   -2.3011   -2.4169 O   0  0  0  0  0  2           0  0  0
   -0.7833   -1.5797    6.3267 O   0  0  0  0  0  2           0  0  0
    1.8058   -4.3462   -1.5016 O   0  0  0  0  0  2           0  0  0
    0.3401   -0.5236    9.7185 O   0  0  0  0  0  2           0  0  0
    1.4519    0.0000   -0.0000 N   0  0  0  0  0  3           0  0  0
    3.5357    0.7699   -0.0300 N   0  0  0  0  0  3           0  0  0
   -2.1254    0.0120    5.3110 N   0  0  0  0  0  3           0  0  0
    3.5498   -0.5999   -0.0532 C   0  0  0  0  0  4           0  0  0
    2.2647    1.1169    0.0000 C   0  0  0  0  0  4           0  0  0
    2.2666   -1.1149   -0.0368 C   0  0  0  0  0  4           0  0  0
   -1.5762   -0.0184    4.0146 C   0  0  0  0  0  4           0  0  0
   -1.7677   -0.1334    8.8189 C   0  0  0  0  0  4           0  0  0
   -2.4224   -0.5618    7.6511 C   0  0  0  0  0  4           0  0  0
   -0.5415    0.0000    1.3968 C   0  0  0  0  0  4           0  0  0
   -0.5145   -0.8615    3.6712 C   0  0  0  0  0  4           0  0  0
   -2.1218    0.8297    3.0457 C   0  0  0  0  0  4           0  0  0
   -2.4697   -0.0443   10.0277 C   0  0  0  0  0  4           0  0  0
   -3.7883   -0.8760    7.7099 C   0  0  0  0  0  4           0  0  0
   -0.0042   -0.8528    2.3700 C   0  0  0  0  0  4           0  0  0
   -1.6092    0.8363    1.7462 C   0  0  0  0  0  4           0  0  0
   -3.8266   -0.3614   10.0722 C   0  0  0  0  0  4           0  0  0
   -4.4849   -0.7720    8.9154 C   0  0  0  0  0  4           0  0  0
   -0.3497    0.2617    8.8619 C   0  0  0  0  0  4           0  0  0
    1.5787   -2.9999   -1.4621 C   0  0  0  0  0  4           0  0  0
   -1.6993   -0.7613    6.3724 C   0  0  0  0  0  4           0  0  0
    1.6560   -4.9594   -2.7865 C   0  0  0  0  0  4           0  0  0
    0.0000    0.0000    0.0000 C   0  0  0  0  0  4           0  0  0
    1.7724    2.5193    0.0302 C   0  0  0  0  0  4           0  0  0
    1.7845   -2.5190   -0.0479 C   0  0  0  0  0  4           0  0  0
    1.5524    3.0862   -1.3688 C   0  0  0  0  0  4           0  0  0
    1.0451    4.5287   -1.3985 C   0  0  0  0  0  4           0  0  0
    0.8385    5.0569   -2.8104 C   0  0  0  0  0  4           0  0  0
  1 10  1  0     0  0
  2 25  2  0     0  0
  3 26  2  0     0  0
  4 27  2  0     0  0
  5 26  1  0     0  0
  5 28  1  0     0  0
  6 25  1  0     0  0
  7 11  1  0     0  0
  7 12  1  0     0  0
  7 29  1  0     0  0
  8 10  1  0     0  0
  8 11  2  0     0  0
  9 13  1  0     0  0
  9 27  1  0     0  0
 10 12  2  0     0  0
 11 30  1  0     0  0
 12 31  1  0     0  0
 13 17  2  0     0  0
 13 18  1  0     0  0
 14 15  1  0     0  0
 14 19  2  0     0  0
 14 25  1  0     0  0
 15 20  2  0     0  0
 15 27  1  0     0  0
 16 21  2  0     0  0
 16 22  1  0     0  0
 16 29  1  0     0  0
 17 21  1  0     0  0
 18 22  2  0     0  0
 19 23  1  0     0  0
 20 24  1  0     0  0
 23 24  2  0     0  0
 26 31  1  0     0  0
 30 32  1  0     0  0
 32 33  1  0     0  0
 33 34  1  0     0  0
M  END
> <standard_type>
pIC50

> <# Confs.>
25

> <canonical_smiles>
ClC(N=C1CCCC)=C(CC(OC)=O)N1CC2=CC=C(NC(C3=CC=CC=C3C(O)=O)=O)C=C2

> <standard_relation>
=

> <Publication_ID>
nan

> <predicted_activity_value>
5.468521082957745

> <actual_activity_value>
6.853871964321762

> <Compound>
9

> <standard_units>
nM

> hash
16389122266415346093

$$$$
8
XXILIB    08252103503D 0   0.00000     0.00000

 34 36  0     1  0            999 V2000
    5.0080   -1.4815   -0.1021 Cl  0  0  0  0  0  1           0  0  0
   -1.6552   -3.0911    7.5209 O   0  0  0  0  0  2           0  0  0
    1.2658   -2.3011   -2.4169 O   0  0  0  0  0  2           0  0  0
   -3.7075   -1.5566    5.1930 O   0  0  0  0  0  2           0  0  0
    1.8058   -4.3462   -1.5016 O   0  0  0  0  0  2           0  0  0
   -3.7192   -3.8301    8.1448 O   0  0  0  0  0  2           0  0  0
    1.4519    0.0000   -0.0000 N   0  0  0  0  0  3           0  0  0
    3.5357    0.7699   -0.0300 N   0  0  0  0  0  3           0  0  0
   -2.0565    0.0619    5.3377 N   0  0  0  0  0  3           0  0  0
    3.5498   -0.5999   -0.0532 C   0  0  0  0  0  4           0  0  0
    2.2647    1.1169    0.0000 C   0  0  0  0  0  4           0  0  0
    2.2666   -1.1149   -0.0368 C   0  0  0  0  0  4           0  0  0
   -1.5761    0.0185    4.0147 C   0  0  0  0  0  4           0  0  0
   -3.3276   -1.5396    8.2141 C   0  0  0  0  0  4           0  0  0
   -3.4190   -0.5071    7.2647 C   0  0  0  0  0  4           0  0  0
   -0.5415   -0.0000    1.3968 C   0  0  0  0  0  4           0  0  0
   -2.1078   -0.8473    3.0535 C   0  0  0  0  0  4           0  0  0
   -0.5301    0.8773    3.6628 C   0  0  0  0  0  4           0  0  0
   -3.7437   -1.3220    9.5338 C   0  0  0  0  0  4           0  0  0
   -3.9102    0.7452    7.6627 C   0  0  0  0  0  4           0  0  0
   -1.5944   -0.8528    1.7534 C   0  0  0  0  0  4           0  0  0
   -0.0190    0.8692    2.3627 C   0  0  0  0  0  4           0  0  0
   -4.2316   -0.0730    9.9152 C   0  0  0  0  0  4           0  0  0
   -4.3106    0.9590    8.9830 C   0  0  0  0  0  4           0  0  0
   -2.7884   -2.8773    7.9165 C   0  0  0  0  0  4           0  0  0
    1.5787   -2.9999   -1.4621 C   0  0  0  0  0  4           0  0  0
   -3.0796   -0.7191    5.8372 C   0  0  0  0  0  4           0  0  0
    1.6560   -4.9594   -2.7865 C   0  0  0  0  0  4           0  0  0
    0.0000    0.0000    0.0000 C   0  0  0  0  0  4           0  0  0
    1.7724    2.5193    0.0302 C   0  0  0  0  0  4           0  0  0
    1.7845   -2.5190   -0.0479 C   0  0  0  0  0  4           0  0  0
    2.5020    3.4110   -0.9696 C   0  0  0  0  0  4           0  0  0
    2.0357    4.8675   -0.9821 C   0  0  0  0  0  4           0  0  0
    2.7868    5.7231   -1.9914 C   0  0  0  0  0  4           0  0  0
  1 10  1  0     0  0
  2 25  2  0     0  0
  3 26  2  0     0  0
  4 27  2  0     0  0
  5 26  1  0     0  0
  5 28  1  0     0  0
  6 25  1  0     0  0
  7 11  1  0     0  0
  7 12  1  0     0  0
  7 29  1  0     0  0
  8 10  1  0     0  0
  8 11  2  0     0  0
  9 13  1  0     0  0
  9 27  1  0     0  0
 10 12  2  0     0  0
 11 30  1  0     0  0
 12 31  1  0     0  0
 13 17  2  0     0  0
 13 18  1  0     0  0
 14 15  1  0     0  0
 14 19  2  0     0  0
 14 25  1  0     0  0
 15 20  2  0     0  0
 15 27  1  0     0  0
 16 21  2  0     0  0
 16 22  1  0     0  0
 16 29  1  0     0  0
 17 21  1  0     0  0
 18 22  2  0     0  0
 19 23  1  0     0  0
 20 24  1  0     0  0
 23 24  2  0     0  0
 26 31  1  0     0  0
 30 32  1  0     0  0
 32 33  1  0     0  0
 33 34  1  0     0  0
M  END
> <standard_type>
pIC50

> <# Confs.>
25

> <canonical_smiles>
ClC(N=C1CCCC)=C(CC(OC)=O)N1CC2=CC=C(NC(C3=CC=CC=C3C(O)=O)=O)C=C2

> <standard_relation>
=

> <Publication_ID>
nan

> <predicted_activity_value>
5.468521082957745

> <actual_activity_value>
6.853871964321762

> <Compound>
9

> <standard_units>
nM

> hash
16389122266415346093

$$$$
8
XXILIB    08252103503D 0   0.00000     0.00000

 34 36  0     1  0            999 V2000
    5.0080   -1.4815   -0.1021 Cl  0  0  0  0  0  1           0  0  0
    0.1310    1.1754    8.2134 O   0  0  0  0  0  2           0  0  0
    1.2658   -2.3011   -2.4169 O   0  0  0  0  0  2           0  0  0
   -0.7833   -1.5797    6.3267 O   0  0  0  0  0  2           0  0  0
    1.8058   -4.3462   -1.5016 O   0  0  0  0  0  2           0  0  0
    0.3401   -0.5236    9.7185 O   0  0  0  0  0  2           0  0  0
    1.4519    0.0000   -0.0000 N   0  0  0  0  0  3           0  0  0
    3.5357    0.7699   -0.0300 N   0  0  0  0  0  3           0  0  0
   -2.1254    0.0120    5.3110 N   0  0  0  0  0  3           0  0  0
    3.5498   -0.5999   -0.0532 C   0  0  0  0  0  4           0  0  0
    2.2647    1.1169    0.0000 C   0  0  0  0  0  4           0  0  0
    2.2666   -1.1149   -0.0368 C   0  0  0  0  0  4           0  0  0
   -1.5762   -0.0184    4.0146 C   0  0  0  0  0  4           0  0  0
   -1.7677   -0.1334    8.8189 C   0  0  0  0  0  4           0  0  0
   -2.4224   -0.5618    7.6511 C   0  0  0  0  0  4           0  0  0
   -0.5415    0.0000    1.3968 C   0  0  0  0  0  4           0  0  0
   -0.5145   -0.8615    3.6712 C   0  0  0  0  0  4           0  0  0
   -2.1218    0.8297    3.0457 C   0  0  0  0  0  4           0  0  0
   -2.4697   -0.0443   10.0277 C   0  0  0  0  0  4           0  0  0
   -3.7883   -0.8760    7.7099 C   0  0  0  0  0  4           0  0  0
   -0.0042   -0.8528    2.3700 C   0  0  0  0  0  4           0  0  0
   -1.6092    0.8363    1.7462 C   0  0  0  0  0  4           0  0  0
   -3.8266   -0.3614   10.0722 C   0  0  0  0  0  4           0  0  0
   -4.4849   -0.7720    8.9154 C   0  0  0  0  0  4           0  0  0
   -0.3497    0.2617    8.8619 C   0  0  0  0  0  4           0  0  0
    1.5787   -2.9999   -1.4621 C   0  0  0  0  0  4           0  0  0
   -1.6993   -0.7613    6.3724 C   0  0  0  0  0  4           0  0  0
    1.6560   -4.9594   -2.7865 C   0  0  0  0  0  4           0  0  0
    0.0000    0.0000    0.0000 C   0  0  0  0  0  4           0  0  0
    1.7724    2.5193    0.0302 C   0  0  0  0  0  4           0  0  0
    1.7845   -2.5190   -0.0479 C   0  0  0  0  0  4           0  0  0
    1.5524    3.0862   -1.3688 C   0  0  0  0  0  4           0  0  0
    2.8044    3.1190   -2.2465 C   0  0  0  0  0  4           0  0  0
    2.5437    3.6906   -3.6323 C   0  0  0  0  0  4           0  0  0
  1 10  1  0     0  0
  2 25  2  0     0  0
  3 26  2  0     0  0
  4 27  2  0     0  0
  5 26  1  0     0  0
  5 28  1  0     0  0
  6 25  1  0     0  0
  7 11  1  0     0  0
  7 12  1  0     0  0
  7 29  1  0     0  0
  8 10  1  0     0  0
  8 11  2  0     0  0
  9 13  1  0     0  0
  9 27  1  0     0  0
 10 12  2  0     0  0
 11 30  1  0     0  0
 12 31  1  0     0  0
 13 17  2  0     0  0
 13 18  1  0     0  0
 14 15  1  0     0  0
 14 19  2  0     0  0
 14 25  1  0     0  0
 15 20  2  0     0  0
 15 27  1  0     0  0
 16 21  2  0     0  0
 16 22  1  0     0  0
 16 29  1  0     0  0
 17 21  1  0     0  0
 18 22  2  0     0  0
 19 23  1  0     0  0
 20 24  1  0     0  0
 23 24  2  0     0  0
 26 31  1  0     0  0
 30 32  1  0     0  0
 32 33  1  0     0  0
 33 34  1  0     0  0
M  END
> <standard_type>
pIC50

> <# Confs.>
25

> <canonical_smiles>
ClC(N=C1CCCC)=C(CC(OC)=O)N1CC2=CC=C(NC(C3=CC=CC=C3C(O)=O)=O)C=C2

> <standard_relation>
=

> <Publication_ID>
nan

> <predicted_activity_value>
5.468521082957745

> <actual_activity_value>
6.853871964321762

> <Compound>
9

> <standard_units>
nM

> hash
16389122266415346093

$$$$
8
XXILIB    08252103503D 0   0.00000     0.00000

 34 36  0     1  0            999 V2000
    5.0080   -1.4815   -0.1021 Cl  0  0  0  0  0  1           0  0  0
   -3.4772   -3.3695    6.7248 O   0  0  0  0  0  2           0  0  0
    1.2658   -2.3011   -2.4169 O   0  0  0  0  0  2           0  0  0
   -0.7833   -1.5797    6.3267 O   0  0  0  0  0  2           0  0  0
    1.8058   -4.3462   -1.5016 O   0  0  0  0  0  2           0  0  0
   -2.5820   -3.8194    8.7723 O   0  0  0  0  0  2           0  0  0
    1.4519    0.0000   -0.0000 N   0  0  0  0  0  3           0  0  0
    3.5357    0.7699   -0.0300 N   0  0  0  0  0  3           0  0  0
   -2.1254    0.0120    5.3110 N   0  0  0  0  0  3           0  0  0
    3.5498   -0.5999   -0.0532 C   0  0  0  0  0  4           0  0  0
    2.2647    1.1169    0.0000 C   0  0  0  0  0  4           0  0  0
    2.2666   -1.1149   -0.0368 C   0  0  0  0  0  4           0  0  0
   -1.5762   -0.0184    4.0146 C   0  0  0  0  0  4           0  0  0
   -3.1113   -1.6078    8.2892 C   0  0  0  0  0  4           0  0  0
   -2.4224   -0.5618    7.6511 C   0  0  0  0  0  4           0  0  0
   -0.5415    0.0000    1.3968 C   0  0  0  0  0  4           0  0  0
   -0.5145   -0.8615    3.6712 C   0  0  0  0  0  4           0  0  0
   -2.1218    0.8297    3.0457 C   0  0  0  0  0  4           0  0  0
   -3.8568   -1.3565    9.4481 C   0  0  0  0  0  4           0  0  0
   -2.4746    0.7270    8.2027 C   0  0  0  0  0  4           0  0  0
   -0.0042   -0.8528    2.3700 C   0  0  0  0  0  4           0  0  0
   -1.6092    0.8363    1.7462 C   0  0  0  0  0  4           0  0  0
   -3.9014   -0.0705    9.9845 C   0  0  0  0  0  4           0  0  0
   -3.2087    0.9675    9.3657 C   0  0  0  0  0  4           0  0  0
   -3.0903   -3.0042    7.8218 C   0  0  0  0  0  4           0  0  0
    1.5787   -2.9999   -1.4621 C   0  0  0  0  0  4           0  0  0
   -1.6993   -0.7613    6.3724 C   0  0  0  0  0  4           0  0  0
    1.6560   -4.9594   -2.7865 C   0  0  0  0  0  4           0  0  0
    0.0000    0.0000    0.0000 C   0  0  0  0  0  4           0  0  0
    1.7724    2.5193    0.0302 C   0  0  0  0  0  4           0  0  0
    1.7845   -2.5190   -0.0479 C   0  0  0  0  0  4           0  0  0
    1.5524    3.0862   -1.3688 C   0  0  0  0  0  4           0  0  0
    1.0451    4.5287   -1.3985 C   0  0  0  0  0  4           0  0  0
    0.8385    5.0569   -2.8104 C   0  0  0  0  0  4           0  0  0
  1 10  1  0     0  0
  2 25  2  0     0  0
  3 26  2  0     0  0
  4 27  2  0     0  0
  5 26  1  0     0  0
  5 28  1  0     0  0
  6 25  1  0     0  0
  7 11  1  0     0  0
  7 12  1  0     0  0
  7 29  1  0     0  0
  8 10  1  0     0  0
  8 11  2  0     0  0
  9 13  1  0     0  0
  9 27  1  0     0  0
 10 12  2  0     0  0
 11 30  1  0     0  0
 12 31  1  0     0  0
 13 17  2  0     0  0
 13 18  1  0     0  0
 14 15  1  0     0  0
 14 19  2  0     0  0
 14 25  1  0     0  0
 15 20  2  0     0  0
 15 27  1  0     0  0
 16 21  2  0     0  0
 16 22  1  0     0  0
 16 29  1  0     0  0
 17 21  1  0     0  0
 18 22  2  0     0  0
 19 23  1  0     0  0
 20 24  1  0     0  0
 23 24  2  0     0  0
 26 31  1  0     0  0
 30 32  1  0     0  0
 32 33  1  0     0  0
 33 34  1  0     0  0
M  END
> <standard_type>
pIC50

> <# Confs.>
25

> <canonical_smiles>
ClC(N=C1CCCC)=C(CC(OC)=O)N1CC2=CC=C(NC(C3=CC=CC=C3C(O)=O)=O)C=C2

> <standard_relation>
=

> <Publication_ID>
nan

> <predicted_activity_value>
5.468521082957745

> <actual_activity_value>
6.853871964321762

> <Compound>
9

> <standard_units>
nM

> hash
16389122266415346093

$$$$
8
XXILIB    08252103503D 0   0.00000     0.00000

 34 36  0     1  0            999 V2000
    5.0080   -1.4815   -0.1021 Cl  0  0  0  0  0  1           0  0  0
   -5.8625    0.8112    5.8001 O   0  0  0  0  0  2           0  0  0
    1.2658   -2.3011   -2.4169 O   0  0  0  0  0  2           0  0  0
   -3.7075   -1.5566    5.1930 O   0  0  0  0  0  2           0  0  0
    1.8058   -4.3462   -1.5016 O   0  0  0  0  0  2           0  0  0
   -6.8550   -0.7636    7.1157 O   0  0  0  0  0  2           0  0  0
    1.4519    0.0000   -0.0000 N   0  0  0  0  0  3           0  0  0
    3.5357    0.7699   -0.0300 N   0  0  0  0  0  3           0  0  0
   -2.0565    0.0619    5.3377 N   0  0  0  0  0  3           0  0  0
    3.5498   -0.5999   -0.0532 C   0  0  0  0  0  4           0  0  0
    2.2647    1.1169    0.0000 C   0  0  0  0  0  4           0  0  0
    2.2666   -1.1149   -0.0368 C   0  0  0  0  0  4           0  0  0
   -1.5761    0.0185    4.0147 C   0  0  0  0  0  4           0  0  0
   -4.6994   -0.0954    7.6735 C   0  0  0  0  0  4           0  0  0
   -3.4190   -0.5071    7.2647 C   0  0  0  0  0  4           0  0  0
   -0.5415   -0.0000    1.3968 C   0  0  0  0  0  4           0  0  0
   -2.1078   -0.8473    3.0535 C   0  0  0  0  0  4           0  0  0
   -0.5301    0.8773    3.6628 C   0  0  0  0  0  4           0  0  0
   -4.9531    0.1808    9.0231 C   0  0  0  0  0  4           0  0  0
   -2.4101   -0.6578    8.2277 C   0  0  0  0  0  4           0  0  0
   -1.5944   -0.8528    1.7534 C   0  0  0  0  0  4           0  0  0
   -0.0190    0.8692    2.3627 C   0  0  0  0  0  4           0  0  0
   -3.9406    0.0285    9.9693 C   0  0  0  0  0  4           0  0  0
   -2.6737   -0.3937    9.5731 C   0  0  0  0  0  4           0  0  0
   -5.8410    0.0539    6.7554 C   0  0  0  0  0  4           0  0  0
    1.5787   -2.9999   -1.4621 C   0  0  0  0  0  4           0  0  0
   -3.0796   -0.7191    5.8372 C   0  0  0  0  0  4           0  0  0
    1.6560   -4.9594   -2.7865 C   0  0  0  0  0  4           0  0  0
    0.0000    0.0000    0.0000 C   0  0  0  0  0  4           0  0  0
    1.7724    2.5193    0.0302 C   0  0  0  0  0  4           0  0  0
    1.7845   -2.5190   -0.0479 C   0  0  0  0  0  4           0  0  0
    2.5020    3.4110   -0.9696 C   0  0  0  0  0  4           0  0  0
    2.3715    2.9710   -2.4284 C   0  0  0  0  0  4           0  0  0
    3.1123    3.8850   -3.3932 C   0  0  0  0  0  4           0  0  0
  1 10  1  0     0  0
  2 25  2  0     0  0
  3 26  2  0     0  0
  4 27  2  0     0  0
  5 26  1  0     0  0
  5 28  1  0     0  0
  6 25  1  0     0  0
  7 11  1  0     0  0
  7 12  1  0     0  0
  7 29  1  0     0  0
  8 10  1  0     0  0
  8 11  2  0     0  0
  9 13  1  0     0  0
  9 27  1  0     0  0
 10 12  2  0     0  0
 11 30  1  0     0  0
 12 31  1  0     0  0
 13 17  2  0     0  0
 13 18  1  0     0  0
 14 15  1  0     0  0
 14 19  2  0     0  0
 14 25  1  0     0  0
 15 20  2  0     0  0
 15 27  1  0     0  0
 16 21  2  0     0  0
 16 22  1  0     0  0
 16 29  1  0     0  0
 17 21  1  0     0  0
 18 22  2  0     0  0
 19 23  1  0     0  0
 20 24  1  0     0  0
 23 24  2  0     0  0
 26 31  1  0     0  0
 30 32  1  0     0  0
 32 33  1  0     0  0
 33 34  1  0     0  0
M  END
> <standard_type>
pIC50

> <# Confs.>
25

> <canonical_smiles>
ClC(N=C1CCCC)=C(CC(OC)=O)N1CC2=CC=C(NC(C3=CC=CC=C3C(O)=O)=O)C=C2

> <standard_relation>
=

> <Publication_ID>
nan

> <predicted_activity_value>
5.468521082957745

> <actual_activity_value>
6.853871964321762

> <Compound>
9

> <standard_units>
nM

> hash
16389122266415346093

$$$$
8
XXILIB    08252103503D 0   0.00000     0.00000

 34 36  0     1  0            999 V2000
    5.0080   -1.4815   -0.1021 Cl  0  0  0  0  0  1           0  0  0
    0.1310    1.1754    8.2134 O   0  0  0  0  0  2           0  0  0
    1.2658   -2.3011   -2.4169 O   0  0  0  0  0  2           0  0  0
   -0.7833   -1.5797    6.3267 O   0  0  0  0  0  2           0  0  0
    1.8058   -4.3462   -1.5016 O   0  0  0  0  0  2           0  0  0
    0.3401   -0.5236    9.7185 O   0  0  0  0  0  2           0  0  0
    1.4519    0.0000   -0.0000 N   0  0  0  0  0  3           0  0  0
    3.5357    0.7699   -0.0300 N   0  0  0  0  0  3           0  0  0
   -2.1254    0.0120    5.3110 N   0  0  0  0  0  3           0  0  0
    3.5498   -0.5999   -0.0532 C   0  0  0  0  0  4           0  0  0
    2.2647    1.1169    0.0000 C   0  0  0  0  0  4           0  0  0
    2.2666   -1.1149   -0.0368 C   0  0  0  0  0  4           0  0  0
   -1.5762   -0.0184    4.0146 C   0  0  0  0  0  4           0  0  0
   -1.7677   -0.1334    8.8189 C   0  0  0  0  0  4           0  0  0
   -2.4224   -0.5618    7.6511 C   0  0  0  0  0  4           0  0  0
   -0.5415    0.0000    1.3968 C   0  0  0  0  0  4           0  0  0
   -0.5145   -0.8615    3.6712 C   0  0  0  0  0  4           0  0  0
   -2.1218    0.8297    3.0457 C   0  0  0  0  0  4           0  0  0
   -2.4697   -0.0443   10.0277 C   0  0  0  0  0  4           0  0  0
   -3.7883   -0.8760    7.7099 C   0  0  0  0  0  4           0  0  0
   -0.0042   -0.8528    2.3700 C   0  0  0  0  0  4           0  0  0
   -1.6092    0.8363    1.7462 C   0  0  0  0  0  4           0  0  0
   -3.8266   -0.3614   10.0722 C   0  0  0  0  0  4           0  0  0
   -4.4849   -0.7720    8.9154 C   0  0  0  0  0  4           0  0  0
   -0.3497    0.2617    8.8619 C   0  0  0  0  0  4           0  0  0
    1.5787   -2.9999   -1.4621 C   0  0  0  0  0  4           0  0  0
   -1.6993   -0.7613    6.3724 C   0  0  0  0  0  4           0  0  0
    1.6560   -4.9594   -2.7865 C   0  0  0  0  0  4           0  0  0
    0.0000    0.0000    0.0000 C   0  0  0  0  0  4           0  0  0
    1.7724    2.5193    0.0302 C   0  0  0  0  0  4           0  0  0
    1.7845   -2.5190   -0.0479 C   0  0  0  0  0  4           0  0  0
    1.6088    3.0452    1.4528 C   0  0  0  0  0  4           0  0  0
    1.1039    4.4859    1.5447 C   0  0  0  0  0  4           0  0  0
    0.9542    4.9727    2.9785 C   0  0  0  0  0  4           0  0  0
  1 10  1  0     0  0
  2 25  2  0     0  0
  3 26  2  0     0  0
  4 27  2  0     0  0
  5 26  1  0     0  0
  5 28  1  0     0  0
  6 25  1  0     0  0
  7 11  1  0     0  0
  7 12  1  0     0  0
  7 29  1  0     0  0
  8 10  1  0     0  0
  8 11  2  0     0  0
  9 13  1  0     0  0
  9 27  1  0     0  0
 10 12  2  0     0  0
 11 30  1  0     0  0
 12 31  1  0     0  0
 13 17  2  0     0  0
 13 18  1  0     0  0
 14 15  1  0     0  0
 14 19  2  0     0  0
 14 25  1  0     0  0
 15 20  2  0     0  0
 15 27  1  0     0  0
 16 21  2  0     0  0
 16 22  1  0     0  0
 16 29  1  0     0  0
 17 21  1  0     0  0
 18 22  2  0     0  0
 19 23  1  0     0  0
 20 24  1  0     0  0
 23 24  2  0     0  0
 26 31  1  0     0  0
 30 32  1  0     0  0
 32 33  1  0     0  0
 33 34  1  0     0  0
M  END
> <standard_type>
pIC50

> <# Confs.>
25

> <canonical_smiles>
ClC(N=C1CCCC)=C(CC(OC)=O)N1CC2=CC=C(NC(C3=CC=CC=C3C(O)=O)=O)C=C2

> <standard_relation>
=

> <Publication_ID>
nan

> <predicted_activity_value>
5.468521082957745

> <actual_activity_value>
6.853871964321762

> <Compound>
9

> <standard_units>
nM

> hash
16389122266415346093

$$$$
8
XXILIB    08252103503D 0   0.00000     0.00000

 34 36  0     1  0            999 V2000
    5.0080   -1.4815   -0.1021 Cl  0  0  0  0  0  1           0  0  0
    0.1310    1.1754    8.2134 O   0  0  0  0  0  2           0  0  0
    1.2658   -2.3011   -2.4169 O   0  0  0  0  0  2           0  0  0
   -0.7833   -1.5797    6.3267 O   0  0  0  0  0  2           0  0  0
    1.8058   -4.3462   -1.5016 O   0  0  0  0  0  2           0  0  0
    0.3401   -0.5236    9.7185 O   0  0  0  0  0  2           0  0  0
    1.4519    0.0000   -0.0000 N   0  0  0  0  0  3           0  0  0
    3.5357    0.7699   -0.0300 N   0  0  0  0  0  3           0  0  0
   -2.1254    0.0120    5.3110 N   0  0  0  0  0  3           0  0  0
    3.5498   -0.5999   -0.0532 C   0  0  0  0  0  4           0  0  0
    2.2647    1.1169    0.0000 C   0  0  0  0  0  4           0  0  0
    2.2666   -1.1149   -0.0368 C   0  0  0  0  0  4           0  0  0
   -1.5762   -0.0184    4.0146 C   0  0  0  0  0  4           0  0  0
   -1.7677   -0.1334    8.8189 C   0  0  0  0  0  4           0  0  0
   -2.4224   -0.5618    7.6511 C   0  0  0  0  0  4           0  0  0
   -0.5415    0.0000    1.3968 C   0  0  0  0  0  4           0  0  0
   -0.5145   -0.8615    3.6712 C   0  0  0  0  0  4           0  0  0
   -2.1218    0.8297    3.0457 C   0  0  0  0  0  4           0  0  0
   -2.4697   -0.0443   10.0277 C   0  0  0  0  0  4           0  0  0
   -3.7883   -0.8760    7.7099 C   0  0  0  0  0  4           0  0  0
   -0.0042   -0.8528    2.3700 C   0  0  0  0  0  4           0  0  0
   -1.6092    0.8363    1.7462 C   0  0  0  0  0  4           0  0  0
   -3.8266   -0.3614   10.0722 C   0  0  0  0  0  4           0  0  0
   -4.4849   -0.7720    8.9154 C   0  0  0  0  0  4           0  0  0
   -0.3497    0.2617    8.8619 C   0  0  0  0  0  4           0  0  0
    1.5787   -2.9999   -1.4621 C   0  0  0  0  0  4           0  0  0
   -1.6993   -0.7613    6.3724 C   0  0  0  0  0  4           0  0  0
    1.6560   -4.9594   -2.7865 C   0  0  0  0  0  4           0  0  0
    0.0000    0.0000    0.0000 C   0  0  0  0  0  4           0  0  0
    1.7724    2.5193    0.0302 C   0  0  0  0  0  4           0  0  0
    1.7845   -2.5190   -0.0479 C   0  0  0  0  0  4           0  0  0
    2.5419    3.3820    1.0256 C   0  0  0  0  0  4           0  0  0
    2.4695    2.8997    2.4751 C   0  0  0  0  0  4           0  0  0
    3.2488    3.7857    3.4357 C   0  0  0  0  0  4           0  0  0
  1 10  1  0     0  0
  2 25  2  0     0  0
  3 26  2  0     0  0
  4 27  2  0     0  0
  5 26  1  0     0  0
  5 28  1  0     0  0
  6 25  1  0     0  0
  7 11  1  0     0  0
  7 12  1  0     0  0
  7 29  1  0     0  0
  8 10  1  0     0  0
  8 11  2  0     0  0
  9 13  1  0     0  0
  9 27  1  0     0  0
 10 12  2  0     0  0
 11 30  1  0     0  0
 12 31  1  0     0  0
 13 17  2  0     0  0
 13 18  1  0     0  0
 14 15  1  0     0  0
 14 19  2  0     0  0
 14 25  1  0     0  0
 15 20  2  0     0  0
 15 27  1  0     0  0
 16 21  2  0     0  0
 16 22  1  0     0  0
 16 29  1  0     0  0
 17 21  1  0     0  0
 18 22  2  0     0  0
 19 23  1  0     0  0
 20 24  1  0     0  0
 23 24  2  0     0  0
 26 31  1  0     0  0
 30 32  1  0     0  0
 32 33  1  0     0  0
 33 34  1  0     0  0
M  END
> <standard_type>
pIC50

> <# Confs.>
25

> <canonical_smiles>
ClC(N=C1CCCC)=C(CC(OC)=O)N1CC2=CC=C(NC(C3=CC=CC=C3C(O)=O)=O)C=C2

> <standard_relation>
=

> <Publication_ID>
nan

> <predicted_activity_value>
5.468521082957745

> <actual_activity_value>
6.853871964321762

> <Compound>
9

> <standard_units>
nM

> hash
16389122266415346093

$$$$
8
XXILIB    08252103503D 0   0.00000     0.00000

 34 36  0     1  0            999 V2000
    5.0080    1.4815    0.1021 Cl  0  0  0  0  0  1           0  0  0
    0.1310    1.1754    8.2134 O   0  0  0  0  0  2           0  0  0
    1.3773    2.3771   -2.3484 O   0  0  0  0  0  2           0  0  0
   -0.7833   -1.5797    6.3267 O   0  0  0  0  0  2           0  0  0
    1.8605    4.3935   -1.3423 O   0  0  0  0  0  2           0  0  0
    0.3401   -0.5236    9.7185 O   0  0  0  0  0  2           0  0  0
    1.4519    0.0000    0.0000 N   0  0  0  0  0  3           0  0  0
    3.5357   -0.7699    0.0300 N   0  0  0  0  0  3           0  0  0
   -2.1254    0.0120    5.3110 N   0  0  0  0  0  3           0  0  0
    3.5498    0.5999    0.0532 C   0  0  0  0  0  4           0  0  0
    2.2647   -1.1169    0.0000 C   0  0  0  0  0  4           0  0  0
    2.2666    1.1149    0.0368 C   0  0  0  0  0  4           0  0  0
   -1.5762   -0.0184    4.0146 C   0  0  0  0  0  4           0  0  0
   -1.7677   -0.1334    8.8189 C   0  0  0  0  0  4           0  0  0
   -2.4224   -0.5618    7.6511 C   0  0  0  0  0  4           0  0  0
   -0.5415    0.0000    1.3968 C   0  0  0  0  0  4           0  0  0
   -0.5145   -0.8615    3.6712 C   0  0  0  0  0  4           0  0  0
   -2.1218    0.8297    3.0457 C   0  0  0  0  0  4           0  0  0
   -2.4697   -0.0443   10.0277 C   0  0  0  0  0  4           0  0  0
   -3.7883   -0.8760    7.7099 C   0  0  0  0  0  4           0  0  0
   -0.0042   -0.8528    2.3700 C   0  0  0  0  0  4           0  0  0
   -1.6092    0.8363    1.7462 C   0  0  0  0  0  4           0  0  0
   -3.8266   -0.3614   10.0722 C   0  0  0  0  0  4           0  0  0
   -4.4849   -0.7720    8.9154 C   0  0  0  0  0  4           0  0  0
   -0.3497    0.2617    8.8619 C   0  0  0  0  0  4           0  0  0
    1.6447    3.0448   -1.3583 C   0  0  0  0  0  4           0  0  0
   -1.6993   -0.7613    6.3724 C   0  0  0  0  0  4           0  0  0
    1.7570    5.0497   -2.6104 C   0  0  0  0  0  4           0  0  0
    0.0000    0.0000    0.0000 C   0  0  0  0  0  4           0  0  0
    1.7724   -2.5193   -0.0302 C   0  0  0  0  0  4           0  0  0
    1.7845    2.5190    0.0479 C   0  0  0  0  0  4           0  0  0
    1.6088   -3.0452   -1.4528 C   0  0  0  0  0  4           0  0  0
    1.1039   -4.4859   -1.5447 C   0  0  0  0  0  4           0  0  0
    0.9542   -4.9727   -2.9785 C   0  0  0  0  0  4           0  0  0
  1 10  1  0     0  0
  2 25  2  0     0  0
  3 26  2  0     0  0
  4 27  2  0     0  0
  5 26  1  0     0  0
  5 28  1  0     0  0
  6 25  1  0     0  0
  7 11  1  0     0  0
  7 12  1  0     0  0
  7 29  1  0     0  0
  8 10  1  0     0  0
  8 11  2  0     0  0
  9 13  1  0     0  0
  9 27  1  0     0  0
 10 12  2  0     0  0
 11 30  1  0     0  0
 12 31  1  0     0  0
 13 17  2  0     0  0
 13 18  1  0     0  0
 14 15  1  0     0  0
 14 19  2  0     0  0
 14 25  1  0     0  0
 15 20  2  0     0  0
 15 27  1  0     0  0
 16 21  2  0     0  0
 16 22  1  0     0  0
 16 29  1  0     0  0
 17 21  1  0     0  0
 18 22  2  0     0  0
 19 23  1  0     0  0
 20 24  1  0     0  0
 23 24  2  0     0  0
 26 31  1  0     0  0
 30 32  1  0     0  0
 32 33  1  0     0  0
 33 34  1  0     0  0
M  END
> <standard_type>
pIC50

> <# Confs.>
25

> <canonical_smiles>
ClC(N=C1CCCC)=C(CC(OC)=O)N1CC2=CC=C(NC(C3=CC=CC=C3C(O)=O)=O)C=C2

> <standard_relation>
=

> <Publication_ID>
nan

> <predicted_activity_value>
5.468521082957745

> <actual_activity_value>
6.853871964321762

> <Compound>
9

> <standard_units>
nM

> hash
16389122266415346093

$$$$
8
XXILIB    08252103503D 0   0.00000     0.00000

 34 36  0     1  0            999 V2000
    5.0080    1.4815    0.1021 Cl  0  0  0  0  0  1           0  0  0
    0.1310    1.1754    8.2134 O   0  0  0  0  0  2           0  0  0
    1.3773    2.3771   -2.3484 O   0  0  0  0  0  2           0  0  0
   -0.7833   -1.5797    6.3267 O   0  0  0  0  0  2           0  0  0
    1.8605    4.3935   -1.3423 O   0  0  0  0  0  2           0  0  0
    0.3401   -0.5236    9.7185 O   0  0  0  0  0  2           0  0  0
    1.4519    0.0000    0.0000 N   0  0  0  0  0  3           0  0  0
    3.5357   -0.7699    0.0300 N   0  0  0  0  0  3           0  0  0
   -2.1254    0.0120    5.3110 N   0  0  0  0  0  3           0  0  0
    3.5498    0.5999    0.0532 C   0  0  0  0  0  4           0  0  0
    2.2647   -1.1169    0.0000 C   0  0  0  0  0  4           0  0  0
    2.2666    1.1149    0.0368 C   0  0  0  0  0  4           0  0  0
   -1.5762   -0.0184    4.0146 C   0  0  0  0  0  4           0  0  0
   -1.7677   -0.1334    8.8189 C   0  0  0  0  0  4           0  0  0
   -2.4224   -0.5618    7.6511 C   0  0  0  0  0  4           0  0  0
   -0.5415    0.0000    1.3968 C   0  0  0  0  0  4           0  0  0
   -0.5145   -0.8615    3.6712 C   0  0  0  0  0  4           0  0  0
   -2.1218    0.8297    3.0457 C   0  0  0  0  0  4           0  0  0
   -2.4697   -0.0443   10.0277 C   0  0  0  0  0  4           0  0  0
   -3.7883   -0.8760    7.7099 C   0  0  0  0  0  4           0  0  0
   -0.0042   -0.8528    2.3700 C   0  0  0  0  0  4           0  0  0
   -1.6092    0.8363    1.7462 C   0  0  0  0  0  4           0  0  0
   -3.8266   -0.3614   10.0722 C   0  0  0  0  0  4           0  0  0
   -4.4849   -0.7720    8.9154 C   0  0  0  0  0  4           0  0  0
   -0.3497    0.2617    8.8619 C   0  0  0  0  0  4           0  0  0
    1.6447    3.0448   -1.3583 C   0  0  0  0  0  4           0  0  0
   -1.6993   -0.7613    6.3724 C   0  0  0  0  0  4           0  0  0
    1.7570    5.0497   -2.6104 C   0  0  0  0  0  4           0  0  0
    0.0000    0.0000    0.0000 C   0  0  0  0  0  4           0  0  0
    1.7724   -2.5193   -0.0302 C   0  0  0  0  0  4           0  0  0
    1.7845    2.5190    0.0479 C   0  0  0  0  0  4           0  0  0
    2.5419   -3.3820   -1.0256 C   0  0  0  0  0  4           0  0  0
    2.4695   -2.8997   -2.4751 C   0  0  0  0  0  4           0  0  0
    3.2488   -3.7857   -3.4357 C   0  0  0  0  0  4           0  0  0
  1 10  1  0     0  0
  2 25  2  0     0  0
  3 26  2  0     0  0
  4 27  2  0     0  0
  5 26  1  0     0  0
  5 28  1  0     0  0
  6 25  1  0     0  0
  7 11  1  0     0  0
  7 12  1  0     0  0
  7 29  1  0     0  0
  8 10  1  0     0  0
  8 11  2  0     0  0
  9 13  1  0     0  0
  9 27  1  0     0  0
 10 12  2  0     0  0
 11 30  1  0     0  0
 12 31  1  0     0  0
 13 17  2  0     0  0
 13 18  1  0     0  0
 14 15  1  0     0  0
 14 19  2  0     0  0
 14 25  1  0     0  0
 15 20  2  0     0  0
 15 27  1  0     0  0
 16 21  2  0     0  0
 16 22  1  0     0  0
 16 29  1  0     0  0
 17 21  1  0     0  0
 18 22  2  0     0  0
 19 23  1  0     0  0
 20 24  1  0     0  0
 23 24  2  0     0  0
 26 31  1  0     0  0
 30 32  1  0     0  0
 32 33  1  0     0  0
 33 34  1  0     0  0
M  END
> <standard_type>
pIC50

> <# Confs.>
25

> <canonical_smiles>
ClC(N=C1CCCC)=C(CC(OC)=O)N1CC2=CC=C(NC(C3=CC=CC=C3C(O)=O)=O)C=C2

> <standard_relation>
=

> <Publication_ID>
nan

> <predicted_activity_value>
5.468521082957745

> <actual_activity_value>
6.853871964321762

> <Compound>
9

> <standard_units>
nM

> hash
16389122266415346093

$$$$
8
XXILIB    08252103503D 0   0.00000     0.00000

 34 36  0     1  0            999 V2000
    5.0080   -1.4815   -0.1021 Cl  0  0  0  0  0  1           0  0  0
   -5.9282    2.6641    7.3942 O   0  0  0  0  0  2           0  0  0
    1.2658   -2.3011   -2.4169 O   0  0  0  0  0  2           0  0  0
   -2.2195    2.2177    5.7699 O   0  0  0  0  0  2           0  0  0
    1.8058   -4.3462   -1.5016 O   0  0  0  0  0  2           0  0  0
   -4.9488    1.4368    5.7418 O   0  0  0  0  0  2           0  0  0
    1.4519    0.0000   -0.0000 N   0  0  0  0  0  3           0  0  0
    3.5357    0.7699   -0.0300 N   0  0  0  0  0  3           0  0  0
   -2.0348   -0.0522    5.3461 N   0  0  0  0  0  3           0  0  0
    3.5498   -0.5999   -0.0532 C   0  0  0  0  0  4           0  0  0
    2.2647    1.1169    0.0000 C   0  0  0  0  0  4           0  0  0
    2.2666   -1.1149   -0.0368 C   0  0  0  0  0  4           0  0  0
   -1.5347   -0.0001    4.0307 C   0  0  0  0  0  4           0  0  0
   -4.1304    1.1830    7.9029 C   0  0  0  0  0  4           0  0  0
   -2.8591    0.7558    7.4817 C   0  0  0  0  0  4           0  0  0
   -0.5415    0.0000    1.3968 C   0  0  0  0  0  4           0  0  0
   -1.2952    1.2083    3.3685 C   0  0  0  0  0  4           0  0  0
   -1.2724   -1.2071    3.3750 C   0  0  0  0  0  4           0  0  0
   -4.5448    0.9661    9.2233 C   0  0  0  0  0  4           0  0  0
   -2.0246    0.0925    8.3937 C   0  0  0  0  0  4           0  0  0
   -0.7993    1.2060    2.0617 C   0  0  0  0  0  4           0  0  0
   -0.7771   -1.2060    2.0688 C   0  0  0  0  0  4           0  0  0
   -3.7045    0.3071   10.1195 C   0  0  0  0  0  4           0  0  0
   -2.4495   -0.1322    9.7045 C   0  0  0  0  0  4           0  0  0
   -5.1020    1.8495    7.0195 C   0  0  0  0  0  4           0  0  0
    1.5787   -2.9999   -1.4621 C   0  0  0  0  0  4           0  0  0
   -2.3418    1.0468    6.1232 C   0  0  0  0  0  4           0  0  0
    1.6560   -4.9594   -2.7865 C   0  0  0  0  0  4           0  0  0
    0.0000    0.0000   -0.0000 C   0  0  0  0  0  4           0  0  0
    1.7724    2.5193    0.0302 C   0  0  0  0  0  4           0  0  0
    1.7845   -2.5190   -0.0479 C   0  0  0  0  0  4           0  0  0
    2.5020    3.4110   -0.9696 C   0  0  0  0  0  4           0  0  0
    2.3715    2.9710   -2.4284 C   0  0  0  0  0  4           0  0  0
    3.1123    3.8850   -3.3932 C   0  0  0  0  0  4           0  0  0
  1 10  1  0     0  0
  2 25  2  0     0  0
  3 26  2  0     0  0
  4 27  2  0     0  0
  5 26  1  0     0  0
  5 28  1  0     0  0
  6 25  1  0     0  0
  7 11  1  0     0  0
  7 12  1  0     0  0
  7 29  1  0     0  0
  8 10  1  0     0  0
  8 11  2  0     0  0
  9 13  1  0     0  0
  9 27  1  0     0  0
 10 12  2  0     0  0
 11 30  1  0     0  0
 12 31  1  0     0  0
 13 17  2  0     0  0
 13 18  1  0     0  0
 14 15  1  0     0  0
 14 19  2  0     0  0
 14 25  1  0     0  0
 15 20  2  0     0  0
 15 27  1  0     0  0
 16 21  2  0     0  0
 16 22  1  0     0  0
 16 29  1  0     0  0
 17 21  1  0     0  0
 18 22  2  0     0  0
 19 23  1  0     0  0
 20 24  1  0     0  0
 23 24  2  0     0  0
 26 31  1  0     0  0
 30 32  1  0     0  0
 32 33  1  0     0  0
 33 34  1  0     0  0
M  END
> <standard_type>
pIC50

> <# Confs.>
25

> <canonical_smiles>
ClC(N=C1CCCC)=C(CC(OC)=O)N1CC2=CC=C(NC(C3=CC=CC=C3C(O)=O)=O)C=C2

> <standard_relation>
=

> <Publication_ID>
nan

> <predicted_activity_value>
5.468521082957745

> <actual_activity_value>
6.853871964321762

> <Compound>
9

> <standard_units>
nM

> hash
16389122266415346093

$$$$
8
XXILIB    08252103503D 0   0.00000     0.00000

 34 36  0     1  0            999 V2000
    5.0080   -1.4815   -0.1021 Cl  0  0  0  0  0  1           0  0  0
   -3.4772   -3.3695    6.7248 O   0  0  0  0  0  2           0  0  0
    1.2658   -2.3011   -2.4169 O   0  0  0  0  0  2           0  0  0
   -0.7833   -1.5797    6.3267 O   0  0  0  0  0  2           0  0  0
    1.8058   -4.3462   -1.5016 O   0  0  0  0  0  2           0  0  0
   -2.5820   -3.8194    8.7723 O   0  0  0  0  0  2           0  0  0
    1.4519    0.0000   -0.0000 N   0  0  0  0  0  3           0  0  0
    3.5357    0.7699   -0.0300 N   0  0  0  0  0  3           0  0  0
   -2.1254    0.0120    5.3110 N   0  0  0  0  0  3           0  0  0
    3.5498   -0.5999   -0.0532 C   0  0  0  0  0  4           0  0  0
    2.2647    1.1169    0.0000 C   0  0  0  0  0  4           0  0  0
    2.2666   -1.1149   -0.0368 C   0  0  0  0  0  4           0  0  0
   -1.5762   -0.0184    4.0146 C   0  0  0  0  0  4           0  0  0
   -3.1113   -1.6078    8.2892 C   0  0  0  0  0  4           0  0  0
   -2.4224   -0.5618    7.6511 C   0  0  0  0  0  4           0  0  0
   -0.5415    0.0000    1.3968 C   0  0  0  0  0  4           0  0  0
   -0.5145   -0.8615    3.6712 C   0  0  0  0  0  4           0  0  0
   -2.1218    0.8297    3.0457 C   0  0  0  0  0  4           0  0  0
   -3.8568   -1.3565    9.4481 C   0  0  0  0  0  4           0  0  0
   -2.4746    0.7270    8.2027 C   0  0  0  0  0  4           0  0  0
   -0.0042   -0.8528    2.3700 C   0  0  0  0  0  4           0  0  0
   -1.6092    0.8363    1.7462 C   0  0  0  0  0  4           0  0  0
   -3.9014   -0.0705    9.9845 C   0  0  0  0  0  4           0  0  0
   -3.2087    0.9675    9.3657 C   0  0  0  0  0  4           0  0  0
   -3.0903   -3.0042    7.8218 C   0  0  0  0  0  4           0  0  0
    1.5787   -2.9999   -1.4621 C   0  0  0  0  0  4           0  0  0
   -1.6993   -0.7613    6.3724 C   0  0  0  0  0  4           0  0  0
    1.6560   -4.9594   -2.7865 C   0  0  0  0  0  4           0  0  0
    0.0000    0.0000    0.0000 C   0  0  0  0  0  4           0  0  0
    1.7724    2.5193    0.0302 C   0  0  0  0  0  4           0  0  0
    1.7845   -2.5190   -0.0479 C   0  0  0  0  0  4           0  0  0
    1.5524    3.0862   -1.3688 C   0  0  0  0  0  4           0  0  0
    2.8044    3.1190   -2.2465 C   0  0  0  0  0  4           0  0  0
    2.5437    3.6906   -3.6323 C   0  0  0  0  0  4           0  0  0
  1 10  1  0     0  0
  2 25  2  0     0  0
  3 26  2  0     0  0
  4 27  2  0     0  0
  5 26  1  0     0  0
  5 28  1  0     0  0
  6 25  1  0     0  0
  7 11  1  0     0  0
  7 12  1  0     0  0
  7 29  1  0     0  0
  8 10  1  0     0  0
  8 11  2  0     0  0
  9 13  1  0     0  0
  9 27  1  0     0  0
 10 12  2  0     0  0
 11 30  1  0     0  0
 12 31  1  0     0  0
 13 17  2  0     0  0
 13 18  1  0     0  0
 14 15  1  0     0  0
 14 19  2  0     0  0
 14 25  1  0     0  0
 15 20  2  0     0  0
 15 27  1  0     0  0
 16 21  2  0     0  0
 16 22  1  0     0  0
 16 29  1  0     0  0
 17 21  1  0     0  0
 18 22  2  0     0  0
 19 23  1  0     0  0
 20 24  1  0     0  0
 23 24  2  0     0  0
 26 31  1  0     0  0
 30 32  1  0     0  0
 32 33  1  0     0  0
 33 34  1  0     0  0
M  END
> <standard_type>
pIC50

> <# Confs.>
25

> <canonical_smiles>
ClC(N=C1CCCC)=C(CC(OC)=O)N1CC2=CC=C(NC(C3=CC=CC=C3C(O)=O)=O)C=C2

> <standard_relation>
=

> <Publication_ID>
nan

> <predicted_activity_value>
5.468521082957745

> <actual_activity_value>
6.853871964321762

> <Compound>
9

> <standard_units>
nM

> hash
16389122266415346093

$$$$
8
XXILIB    08252103503D 0   0.00000     0.00000

 34 36  0     1  0            999 V2000
    5.0080   -1.4815   -0.1021 Cl  0  0  0  0  0  1           0  0  0
   -5.8625    0.8112    5.8001 O   0  0  0  0  0  2           0  0  0
    1.2658   -2.3011   -2.4169 O   0  0  0  0  0  2           0  0  0
   -3.7075   -1.5566    5.1930 O   0  0  0  0  0  2           0  0  0
    1.8058   -4.3462   -1.5016 O   0  0  0  0  0  2           0  0  0
   -6.8550   -0.7636    7.1157 O   0  0  0  0  0  2           0  0  0
    1.4519    0.0000   -0.0000 N   0  0  0  0  0  3           0  0  0
    3.5357    0.7699   -0.0300 N   0  0  0  0  0  3           0  0  0
   -2.0565    0.0619    5.3377 N   0  0  0  0  0  3           0  0  0
    3.5498   -0.5999   -0.0532 C   0  0  0  0  0  4           0  0  0
    2.2647    1.1169    0.0000 C   0  0  0  0  0  4           0  0  0
    2.2666   -1.1149   -0.0368 C   0  0  0  0  0  4           0  0  0
   -1.5761    0.0185    4.0147 C   0  0  0  0  0  4           0  0  0
   -4.6994   -0.0954    7.6735 C   0  0  0  0  0  4           0  0  0
   -3.4190   -0.5071    7.2647 C   0  0  0  0  0  4           0  0  0
   -0.5415   -0.0000    1.3968 C   0  0  0  0  0  4           0  0  0
   -2.1078   -0.8473    3.0535 C   0  0  0  0  0  4           0  0  0
   -0.5301    0.8773    3.6628 C   0  0  0  0  0  4           0  0  0
   -4.9531    0.1808    9.0231 C   0  0  0  0  0  4           0  0  0
   -2.4101   -0.6578    8.2277 C   0  0  0  0  0  4           0  0  0
   -1.5944   -0.8528    1.7534 C   0  0  0  0  0  4           0  0  0
   -0.0190    0.8692    2.3627 C   0  0  0  0  0  4           0  0  0
   -3.9406    0.0285    9.9693 C   0  0  0  0  0  4           0  0  0
   -2.6737   -0.3937    9.5731 C   0  0  0  0  0  4           0  0  0
   -5.8410    0.0539    6.7554 C   0  0  0  0  0  4           0  0  0
    1.5787   -2.9999   -1.4621 C   0  0  0  0  0  4           0  0  0
   -3.0796   -0.7191    5.8372 C   0  0  0  0  0  4           0  0  0
    1.6560   -4.9594   -2.7865 C   0  0  0  0  0  4           0  0  0
    0.0000    0.0000    0.0000 C   0  0  0  0  0  4           0  0  0
    1.7724    2.5193    0.0302 C   0  0  0  0  0  4           0  0  0
    1.7845   -2.5190   -0.0479 C   0  0  0  0  0  4           0  0  0
    2.5020    3.4110   -0.9696 C   0  0  0  0  0  4           0  0  0
    2.0357    4.8675   -0.9821 C   0  0  0  0  0  4           0  0  0
    2.7868    5.7231   -1.9914 C   0  0  0  0  0  4           0  0  0
  1 10  1  0     0  0
  2 25  2  0     0  0
  3 26  2  0     0  0
  4 27  2  0     0  0
  5 26  1  0     0  0
  5 28  1  0     0  0
  6 25  1  0     0  0
  7 11  1  0     0  0
  7 12  1  0     0  0
  7 29  1  0     0  0
  8 10  1  0     0  0
  8 11  2  0     0  0
  9 13  1  0     0  0
  9 27  1  0     0  0
 10 12  2  0     0  0
 11 30  1  0     0  0
 12 31  1  0     0  0
 13 17  2  0     0  0
 13 18  1  0     0  0
 14 15  1  0     0  0
 14 19  2  0     0  0
 14 25  1  0     0  0
 15 20  2  0     0  0
 15 27  1  0     0  0
 16 21  2  0     0  0
 16 22  1  0     0  0
 16 29  1  0     0  0
 17 21  1  0     0  0
 18 22  2  0     0  0
 19 23  1  0     0  0
 20 24  1  0     0  0
 23 24  2  0     0  0
 26 31  1  0     0  0
 30 32  1  0     0  0
 32 33  1  0     0  0
 33 34  1  0     0  0
M  END
> <standard_type>
pIC50

> <# Confs.>
25

> <canonical_smiles>
ClC(N=C1CCCC)=C(CC(OC)=O)N1CC2=CC=C(NC(C3=CC=CC=C3C(O)=O)=O)C=C2

> <standard_relation>
=

> <Publication_ID>
nan

> <predicted_activity_value>
5.468521082957745

> <actual_activity_value>
6.853871964321762

> <Compound>
9

> <standard_units>
nM

> hash
16389122266415346093

$$$$
8
XXILIB    08252103503D 0   0.00000     0.00000

 34 36  0     1  0            999 V2000
    5.0080   -1.4815   -0.1021 Cl  0  0  0  0  0  1           0  0  0
   -3.4772   -3.3695    6.7248 O   0  0  0  0  0  2           0  0  0
    1.2658   -2.3011   -2.4169 O   0  0  0  0  0  2           0  0  0
   -0.7833   -1.5797    6.3267 O   0  0  0  0  0  2           0  0  0
    1.8058   -4.3462   -1.5016 O   0  0  0  0  0  2           0  0  0
   -2.5820   -3.8194    8.7723 O   0  0  0  0  0  2           0  0  0
    1.4519    0.0000   -0.0000 N   0  0  0  0  0  3           0  0  0
    3.5357    0.7699   -0.0300 N   0  0  0  0  0  3           0  0  0
   -2.1254    0.0120    5.3110 N   0  0  0  0  0  3           0  0  0
    3.5498   -0.5999   -0.0532 C   0  0  0  0  0  4           0  0  0
    2.2647    1.1169    0.0000 C   0  0  0  0  0  4           0  0  0
    2.2666   -1.1149   -0.0368 C   0  0  0  0  0  4           0  0  0
   -1.5762   -0.0184    4.0146 C   0  0  0  0  0  4           0  0  0
   -3.1113   -1.6078    8.2892 C   0  0  0  0  0  4           0  0  0
   -2.4224   -0.5618    7.6511 C   0  0  0  0  0  4           0  0  0
   -0.5415    0.0000    1.3968 C   0  0  0  0  0  4           0  0  0
   -0.5145   -0.8615    3.6712 C   0  0  0  0  0  4           0  0  0
   -2.1218    0.8297    3.0457 C   0  0  0  0  0  4           0  0  0
   -3.8568   -1.3565    9.4481 C   0  0  0  0  0  4           0  0  0
   -2.4746    0.7270    8.2027 C   0  0  0  0  0  4           0  0  0
   -0.0042   -0.8528    2.3700 C   0  0  0  0  0  4           0  0  0
   -1.6092    0.8363    1.7462 C   0  0  0  0  0  4           0  0  0
   -3.9014   -0.0705    9.9845 C   0  0  0  0  0  4           0  0  0
   -3.2087    0.9675    9.3657 C   0  0  0  0  0  4           0  0  0
   -3.0903   -3.0042    7.8218 C   0  0  0  0  0  4           0  0  0
    1.5787   -2.9999   -1.4621 C   0  0  0  0  0  4           0  0  0
   -1.6993   -0.7613    6.3724 C   0  0  0  0  0  4           0  0  0
    1.6560   -4.9594   -2.7865 C   0  0  0  0  0  4           0  0  0
    0.0000    0.0000    0.0000 C   0  0  0  0  0  4           0  0  0
    1.7724    2.5193    0.0302 C   0  0  0  0  0  4           0  0  0
    1.7845   -2.5190   -0.0479 C   0  0  0  0  0  4           0  0  0
    1.6088    3.0452    1.4528 C   0  0  0  0  0  4           0  0  0
    1.1039    4.4859    1.5447 C   0  0  0  0  0  4           0  0  0
    0.9542    4.9727    2.9785 C   0  0  0  0  0  4           0  0  0
  1 10  1  0     0  0
  2 25  2  0     0  0
  3 26  2  0     0  0
  4 27  2  0     0  0
  5 26  1  0     0  0
  5 28  1  0     0  0
  6 25  1  0     0  0
  7 11  1  0     0  0
  7 12  1  0     0  0
  7 29  1  0     0  0
  8 10  1  0     0  0
  8 11  2  0     0  0
  9 13  1  0     0  0
  9 27  1  0     0  0
 10 12  2  0     0  0
 11 30  1  0     0  0
 12 31  1  0     0  0
 13 17  2  0     0  0
 13 18  1  0     0  0
 14 15  1  0     0  0
 14 19  2  0     0  0
 14 25  1  0     0  0
 15 20  2  0     0  0
 15 27  1  0     0  0
 16 21  2  0     0  0
 16 22  1  0     0  0
 16 29  1  0     0  0
 17 21  1  0     0  0
 18 22  2  0     0  0
 19 23  1  0     0  0
 20 24  1  0     0  0
 23 24  2  0     0  0
 26 31  1  0     0  0
 30 32  1  0     0  0
 32 33  1  0     0  0
 33 34  1  0     0  0
M  END
> <standard_type>
pIC50

> <# Confs.>
25

> <canonical_smiles>
ClC(N=C1CCCC)=C(CC(OC)=O)N1CC2=CC=C(NC(C3=CC=CC=C3C(O)=O)=O)C=C2

> <standard_relation>
=

> <Publication_ID>
nan

> <predicted_activity_value>
5.468521082957745

> <actual_activity_value>
6.853871964321762

> <Compound>
9

> <standard_units>
nM

> hash
16389122266415346093

$$$$
6
XXILIB    08252103503D 0   0.00000     0.00000

 33 35  0     1  0            999 V2000
    5.0019    1.4987   -0.0650 Cl  0  0  0  0  0  1           0  0  0
   -3.6952   -3.1114    4.7631 S   0  0  1  0  0  6           0  0  0
   -3.7143   -5.0622    6.4763 F   0  0  0  0  0  1           0  0  0
   -5.6807   -4.4073    5.7991 F   0  0  0  0  0  1           0  0  0
   -4.5552   -3.1871    7.2136 F   0  0  0  0  0  1           0  0  0
   -4.5494   -1.9763    4.4699 O   0  0  0  0  0  2           0  0  0
   -3.3740   -4.0835    3.7365 O   0  0  0  0  0  2           0  0  0
    1.6114    2.9030   -1.4027 O   0  0  0  0  0  2           0  0  0
    1.4522    0.0000    0.0000 N   0  0  0  0  0  3           0  0  0
    3.5396   -0.7595   -0.0143 N   0  0  0  0  0  3           0  0  0
   -2.2525   -2.5272    5.5073 N   0  0  0  0  0  3           0  0  0
    3.5478    0.6103   -0.0330 C   0  0  0  0  0  4           0  0  0
    2.2701   -1.1133    0.0000 C   0  0  0  0  0  4           0  0  0
    2.2624    1.1179   -0.0275 C   0  0  0  0  0  4           0  0  0
   -2.3624   -1.2313    6.1242 C   0  0  0  0  0  4           0  0  0
   -2.0954   -0.0431    5.4059 C   0  0  0  0  0  4           0  0  0
   -1.5631   -0.0295    4.0341 C   0  0  0  0  0  4           0  0  0
   -0.5411   -0.0000    1.3972 C   0  0  0  0  0  4           0  0  0
   -2.8605   -1.1856    7.4358 C   0  0  0  0  0  4           0  0  0
   -2.3388    1.1781    6.0681 C   0  0  0  0  0  4           0  0  0
   -0.1801   -0.0118    3.8002 C   0  0  0  0  0  4           0  0  0
   -2.4272   -0.0384    2.9290 C   0  0  0  0  0  4           0  0  0
    0.3251    0.0000    2.4971 C   0  0  0  0  0  4           0  0  0
   -1.9221   -0.0261    1.6260 C   0  0  0  0  0  4           0  0  0
   -3.0826    0.0371    8.0624 C   0  0  0  0  0  4           0  0  0
   -2.8224    1.2185    7.3786 C   0  0  0  0  0  4           0  0  0
   -4.4368   -3.9741    6.1169 C   0  0  2  0  0  4           0  0  0
    1.7716    2.5121   -0.0456 C   0  0  0  0  0  4           0  0  0
    0.0000    0.0000   -0.0000 C   0  0  0  0  0  4           0  0  0
    1.7869   -2.5212    0.0145 C   0  0  0  0  0  4           0  0  0
    1.5851   -3.0797   -1.3912 C   0  0  0  0  0  4           0  0  0
    1.0886   -4.5256   -1.4255 C   0  0  0  0  0  4           0  0  0
    0.8969   -5.0545   -2.8390 C   0  0  0  0  0  4           0  0  0
  1 12  1  0     0  0
  2  6  2  0     0  0
  2  7  2  0     0  0
  2 11  1  0     0  0
  2 27  1  0     0  0
  3 27  1  0     0  0
  4 27  1  0     0  0
  5 27  1  0     0  0
  8 28  1  0     0  0
  9 13  1  0     0  0
  9 14  1  0     0  0
  9 29  1  0     0  0
 10 12  1  0     0  0
 10 13  2  0     0  0
 11 15  1  0     0  0
 12 14  2  0     0  0
 13 30  1  0     0  0
 14 28  1  0     0  0
 15 16  1  0     0  0
 15 19  2  0     0  0
 16 17  1  0     0  0
 16 20  2  0     0  0
 17 21  2  0     0  0
 17 22  1  0     0  0
 18 23  2  0     0  0
 18 24  1  0     0  0
 18 29  1  0     0  0
 19 25  1  0     0  0
 20 26  1  0     0  0
 21 23  1  0     0  0
 22 24  2  0     0  0
 25 26  2  0     0  0
 30 31  1  0     0  0
 31 32  1  0     0  0
 32 33  1  0     0  0
M  END
> <standard_type>
pIC50

> <# Confs.>
25

> <canonical_smiles>
ClC(N=C1CCCC)=C(CO)N1CC2=CC=C(C3=CC=CC=C3NS(=O)(C(F)(F)F)=O)C=C2

> <standard_relation>
=

> <Publication_ID>
nan

> <predicted_activity_value>
7.022276394711152

> <actual_activity_value>
7.080921907623926

> <Compound>
7

> <standard_units>
nM

> hash
11133345014010873493

$$$$
6
XXILIB    08252103503D 0   0.00000     0.00000

 33 35  0     1  0            999 V2000
    5.0019    1.4987   -0.0650 Cl  0  0  0  0  0  1           0  0  0
   -1.6191    3.4432    5.3302 S   0  0  1  0  0  6           0  0  0
   -3.0482    3.7847    7.4707 F   0  0  0  0  0  1           0  0  0
   -2.5143    5.6156    6.4139 F   0  0  0  0  0  1           0  0  0
   -1.0123    4.5635    7.5944 F   0  0  0  0  0  1           0  0  0
   -0.5670    4.1780    4.6539 O   0  0  0  0  0  2           0  0  0
   -2.8395    3.0844    4.6342 O   0  0  0  0  0  2           0  0  0
    1.6114    2.9030   -1.4027 O   0  0  0  0  0  2           0  0  0
    1.4522    0.0000    0.0000 N   0  0  0  0  0  3           0  0  0
    3.5396   -0.7595   -0.0143 N   0  0  0  0  0  3           0  0  0
   -0.9196    2.0504    6.0697 N   0  0  0  0  0  3           0  0  0
    3.5478    0.6103   -0.0330 C   0  0  0  0  0  4           0  0  0
    2.2701   -1.1133    0.0000 C   0  0  0  0  0  4           0  0  0
    2.2624    1.1179   -0.0275 C   0  0  0  0  0  4           0  0  0
   -1.8383    0.9781    6.3494 C   0  0  0  0  0  4           0  0  0
   -2.0954   -0.0431    5.4059 C   0  0  0  0  0  4           0  0  0
   -1.5631   -0.0295    4.0341 C   0  0  0  0  0  4           0  0  0
   -0.5411    0.0000    1.3972 C   0  0  0  0  0  4           0  0  0
   -2.3810    0.9196    7.6426 C   0  0  0  0  0  4           0  0  0
   -2.9254   -1.1061    5.8179 C   0  0  0  0  0  4           0  0  0
   -0.1801   -0.0118    3.8002 C   0  0  0  0  0  4           0  0  0
   -2.4272   -0.0384    2.9290 C   0  0  0  0  0  4           0  0  0
    0.3251   -0.0000    2.4971 C   0  0  0  0  0  4           0  0  0
   -1.9221   -0.0261    1.6260 C   0  0  0  0  0  4           0  0  0
   -3.2024   -0.1407    8.0141 C   0  0  0  0  0  4           0  0  0
   -3.4741   -1.1534    7.1023 C   0  0  0  0  0  4           0  0  0
   -2.0642    4.3851    6.7591 C   0  0  2  0  0  4           0  0  0
    1.7716    2.5121   -0.0456 C   0  0  0  0  0  4           0  0  0
    0.0000    0.0000    0.0000 C   0  0  0  0  0  4           0  0  0
    1.7869   -2.5212    0.0145 C   0  0  0  0  0  4           0  0  0
    1.5851   -3.0797   -1.3912 C   0  0  0  0  0  4           0  0  0
    1.0886   -4.5256   -1.4255 C   0  0  0  0  0  4           0  0  0
    0.8969   -5.0545   -2.8390 C   0  0  0  0  0  4           0  0  0
  1 12  1  0     0  0
  2  6  2  0     0  0
  2  7  2  0     0  0
  2 11  1  0     0  0
  2 27  1  0     0  0
  3 27  1  0     0  0
  4 27  1  0     0  0
  5 27  1  0     0  0
  8 28  1  0     0  0
  9 13  1  0     0  0
  9 14  1  0     0  0
  9 29  1  0     0  0
 10 12  1  0     0  0
 10 13  2  0     0  0
 11 15  1  0     0  0
 12 14  2  0     0  0
 13 30  1  0     0  0
 14 28  1  0     0  0
 15 16  1  0     0  0
 15 19  2  0     0  0
 16 17  1  0     0  0
 16 20  2  0     0  0
 17 21  2  0     0  0
 17 22  1  0     0  0
 18 23  2  0     0  0
 18 24  1  0     0  0
 18 29  1  0     0  0
 19 25  1  0     0  0
 20 26  1  0     0  0
 21 23  1  0     0  0
 22 24  2  0     0  0
 25 26  2  0     0  0
 30 31  1  0     0  0
 31 32  1  0     0  0
 32 33  1  0     0  0
M  END
> <standard_type>
pIC50

> <# Confs.>
25

> <canonical_smiles>
ClC(N=C1CCCC)=C(CO)N1CC2=CC=C(C3=CC=CC=C3NS(=O)(C(F)(F)F)=O)C=C2

> <standard_relation>
=

> <Publication_ID>
nan

> <predicted_activity_value>
7.022276394711152

> <actual_activity_value>
7.080921907623926

> <Compound>
7

> <standard_units>
nM

> hash
11133345014010873493

$$$$
6
XXILIB    08252103503D 0   0.00000     0.00000

 33 35  0     1  0            999 V2000
    5.0019    1.4987   -0.0650 Cl  0  0  0  0  0  1           0  0  0
   -3.6952   -3.1114    4.7631 S   0  0  1  0  0  6           0  0  0
   -3.7143   -5.0622    6.4763 F   0  0  0  0  0  1           0  0  0
   -5.6807   -4.4073    5.7991 F   0  0  0  0  0  1           0  0  0
   -4.5552   -3.1871    7.2136 F   0  0  0  0  0  1           0  0  0
   -4.5494   -1.9763    4.4699 O   0  0  0  0  0  2           0  0  0
   -3.3740   -4.0835    3.7365 O   0  0  0  0  0  2           0  0  0
    1.6114    2.9030   -1.4027 O   0  0  0  0  0  2           0  0  0
    1.4522    0.0000    0.0000 N   0  0  0  0  0  3           0  0  0
    3.5396   -0.7595   -0.0143 N   0  0  0  0  0  3           0  0  0
   -2.2525   -2.5272    5.5073 N   0  0  0  0  0  3           0  0  0
    3.5478    0.6103   -0.0330 C   0  0  0  0  0  4           0  0  0
    2.2701   -1.1133    0.0000 C   0  0  0  0  0  4           0  0  0
    2.2624    1.1179   -0.0275 C   0  0  0  0  0  4           0  0  0
   -2.3624   -1.2313    6.1242 C   0  0  0  0  0  4           0  0  0
   -2.0954   -0.0431    5.4059 C   0  0  0  0  0  4           0  0  0
   -1.5631   -0.0295    4.0341 C   0  0  0  0  0  4           0  0  0
   -0.5411   -0.0000    1.3972 C   0  0  0  0  0  4           0  0  0
   -2.8605   -1.1856    7.4358 C   0  0  0  0  0  4           0  0  0
   -2.3388    1.1781    6.0681 C   0  0  0  0  0  4           0  0  0
   -0.1801   -0.0118    3.8002 C   0  0  0  0  0  4           0  0  0
   -2.4272   -0.0384    2.9290 C   0  0  0  0  0  4           0  0  0
    0.3251    0.0000    2.4971 C   0  0  0  0  0  4           0  0  0
   -1.9221   -0.0261    1.6260 C   0  0  0  0  0  4           0  0  0
   -3.0826    0.0371    8.0624 C   0  0  0  0  0  4           0  0  0
   -2.8224    1.2185    7.3786 C   0  0  0  0  0  4           0  0  0
   -4.4368   -3.9741    6.1169 C   0  0  2  0  0  4           0  0  0
    1.7716    2.5121   -0.0456 C   0  0  0  0  0  4           0  0  0
    0.0000    0.0000   -0.0000 C   0  0  0  0  0  4           0  0  0
    1.7869   -2.5212    0.0145 C   0  0  0  0  0  4           0  0  0
    1.5851   -3.0797   -1.3912 C   0  0  0  0  0  4           0  0  0
    2.8517   -3.0929   -2.2478 C   0  0  0  0  0  4           0  0  0
    2.6199   -3.6545   -3.6425 C   0  0  0  0  0  4           0  0  0
  1 12  1  0     0  0
  2  6  2  0     0  0
  2  7  2  0     0  0
  2 11  1  0     0  0
  2 27  1  0     0  0
  3 27  1  0     0  0
  4 27  1  0     0  0
  5 27  1  0     0  0
  8 28  1  0     0  0
  9 13  1  0     0  0
  9 14  1  0     0  0
  9 29  1  0     0  0
 10 12  1  0     0  0
 10 13  2  0     0  0
 11 15  1  0     0  0
 12 14  2  0     0  0
 13 30  1  0     0  0
 14 28  1  0     0  0
 15 16  1  0     0  0
 15 19  2  0     0  0
 16 17  1  0     0  0
 16 20  2  0     0  0
 17 21  2  0     0  0
 17 22  1  0     0  0
 18 23  2  0     0  0
 18 24  1  0     0  0
 18 29  1  0     0  0
 19 25  1  0     0  0
 20 26  1  0     0  0
 21 23  1  0     0  0
 22 24  2  0     0  0
 25 26  2  0     0  0
 30 31  1  0     0  0
 31 32  1  0     0  0
 32 33  1  0     0  0
M  END
> <standard_type>
pIC50

> <# Confs.>
25

> <canonical_smiles>
ClC(N=C1CCCC)=C(CO)N1CC2=CC=C(C3=CC=CC=C3NS(=O)(C(F)(F)F)=O)C=C2

> <standard_relation>
=

> <Publication_ID>
nan

> <predicted_activity_value>
7.022276394711152

> <actual_activity_value>
7.080921907623926

> <Compound>
7

> <standard_units>
nM

> hash
11133345014010873493

$$$$
6
XXILIB    08252103503D 0   0.00000     0.00000

 33 35  0     1  0            999 V2000
    5.0019    1.4987   -0.0650 Cl  0  0  0  0  0  1           0  0  0
   -0.5013    3.0251    6.0630 S   0  0  1  0  0  6           0  0  0
   -1.6556    4.9461    7.3737 F   0  0  0  0  0  1           0  0  0
    0.2572    4.2899    8.1891 F   0  0  0  0  0  1           0  0  0
   -1.5196    3.0532    8.4530 F   0  0  0  0  0  1           0  0  0
    0.3347    1.8895    6.4034 O   0  0  0  0  0  2           0  0  0
   -0.0524    4.0168    5.1052 O   0  0  0  0  0  2           0  0  0
    1.6114    2.9030   -1.4027 O   0  0  0  0  0  2           0  0  0
    1.4522    0.0000    0.0000 N   0  0  0  0  0  3           0  0  0
    3.5396   -0.7595   -0.0143 N   0  0  0  0  0  3           0  0  0
   -2.0644    2.4378    5.6292 N   0  0  0  0  0  3           0  0  0
    3.5478    0.6103   -0.0330 C   0  0  0  0  0  4           0  0  0
    2.2701   -1.1133    0.0000 C   0  0  0  0  0  4           0  0  0
    2.2624    1.1179   -0.0275 C   0  0  0  0  0  4           0  0  0
   -2.3907    1.1309    6.1365 C   0  0  0  0  0  4           0  0  0
   -2.0954   -0.0431    5.4059 C   0  0  0  0  0  4           0  0  0
   -1.5631   -0.0295    4.0341 C   0  0  0  0  0  4           0  0  0
   -0.5411    0.0000    1.3972 C   0  0  0  0  0  4           0  0  0
   -2.9073    1.0594    7.4397 C   0  0  0  0  0  4           0  0  0
   -2.3542   -1.2769    6.0379 C   0  0  0  0  0  4           0  0  0
   -0.1801   -0.0118    3.8002 C   0  0  0  0  0  4           0  0  0
   -2.4272   -0.0384    2.9290 C   0  0  0  0  0  4           0  0  0
    0.3251   -0.0000    2.4971 C   0  0  0  0  0  4           0  0  0
   -1.9221   -0.0261    1.6260 C   0  0  0  0  0  4           0  0  0
   -3.1578   -0.1753    8.0311 C   0  0  0  0  0  4           0  0  0
   -2.8809   -1.3430    7.3307 C   0  0  0  0  0  4           0  0  0
   -0.8725    3.8596    7.5772 C   0  0  2  0  0  4           0  0  0
    1.7716    2.5121   -0.0456 C   0  0  0  0  0  4           0  0  0
    0.0000    0.0000    0.0000 C   0  0  0  0  0  4           0  0  0
    1.7869   -2.5212    0.0145 C   0  0  0  0  0  4           0  0  0
    1.5851   -3.0797   -1.3912 C   0  0  0  0  0  4           0  0  0
    1.0886   -4.5256   -1.4255 C   0  0  0  0  0  4           0  0  0
    0.8969   -5.0545   -2.8390 C   0  0  0  0  0  4           0  0  0
  1 12  1  0     0  0
  2  6  2  0     0  0
  2  7  2  0     0  0
  2 11  1  0     0  0
  2 27  1  0     0  0
  3 27  1  0     0  0
  4 27  1  0     0  0
  5 27  1  0     0  0
  8 28  1  0     0  0
  9 13  1  0     0  0
  9 14  1  0     0  0
  9 29  1  0     0  0
 10 12  1  0     0  0
 10 13  2  0     0  0
 11 15  1  0     0  0
 12 14  2  0     0  0
 13 30  1  0     0  0
 14 28  1  0     0  0
 15 16  1  0     0  0
 15 19  2  0     0  0
 16 17  1  0     0  0
 16 20  2  0     0  0
 17 21  2  0     0  0
 17 22  1  0     0  0
 18 23  2  0     0  0
 18 24  1  0     0  0
 18 29  1  0     0  0
 19 25  1  0     0  0
 20 26  1  0     0  0
 21 23  1  0     0  0
 22 24  2  0     0  0
 25 26  2  0     0  0
 30 31  1  0     0  0
 31 32  1  0     0  0
 32 33  1  0     0  0
M  END
> <standard_type>
pIC50

> <# Confs.>
25

> <canonical_smiles>
ClC(N=C1CCCC)=C(CO)N1CC2=CC=C(C3=CC=CC=C3NS(=O)(C(F)(F)F)=O)C=C2

> <standard_relation>
=

> <Publication_ID>
nan

> <predicted_activity_value>
7.022276394711152

> <actual_activity_value>
7.080921907623926

> <Compound>
7

> <standard_units>
nM

> hash
11133345014010873493

$$$$
6
XXILIB    08252103503D 0   0.00000     0.00000

 33 35  0     1  0            999 V2000
    5.0019    1.4987   -0.0650 Cl  0  0  0  0  0  1           0  0  0
   -1.6191    3.4432    5.3302 S   0  0  1  0  0  6           0  0  0
   -3.0482    3.7847    7.4707 F   0  0  0  0  0  1           0  0  0
   -2.5143    5.6156    6.4139 F   0  0  0  0  0  1           0  0  0
   -1.0123    4.5635    7.5944 F   0  0  0  0  0  1           0  0  0
   -0.5670    4.1780    4.6539 O   0  0  0  0  0  2           0  0  0
   -2.8395    3.0844    4.6342 O   0  0  0  0  0  2           0  0  0
    1.6114    2.9030   -1.4027 O   0  0  0  0  0  2           0  0  0
    1.4522    0.0000    0.0000 N   0  0  0  0  0  3           0  0  0
    3.5396   -0.7595   -0.0143 N   0  0  0  0  0  3           0  0  0
   -0.9196    2.0504    6.0697 N   0  0  0  0  0  3           0  0  0
    3.5478    0.6103   -0.0330 C   0  0  0  0  0  4           0  0  0
    2.2701   -1.1133    0.0000 C   0  0  0  0  0  4           0  0  0
    2.2624    1.1179   -0.0275 C   0  0  0  0  0  4           0  0  0
   -1.8383    0.9781    6.3494 C   0  0  0  0  0  4           0  0  0
   -2.0954   -0.0431    5.4059 C   0  0  0  0  0  4           0  0  0
   -1.5631   -0.0295    4.0341 C   0  0  0  0  0  4           0  0  0
   -0.5411    0.0000    1.3972 C   0  0  0  0  0  4           0  0  0
   -2.3810    0.9196    7.6426 C   0  0  0  0  0  4           0  0  0
   -2.9254   -1.1061    5.8179 C   0  0  0  0  0  4           0  0  0
   -0.1801   -0.0118    3.8002 C   0  0  0  0  0  4           0  0  0
   -2.4272   -0.0384    2.9290 C   0  0  0  0  0  4           0  0  0
    0.3251   -0.0000    2.4971 C   0  0  0  0  0  4           0  0  0
   -1.9221   -0.0261    1.6260 C   0  0  0  0  0  4           0  0  0
   -3.2024   -0.1407    8.0141 C   0  0  0  0  0  4           0  0  0
   -3.4741   -1.1534    7.1023 C   0  0  0  0  0  4           0  0  0
   -2.0642    4.3851    6.7591 C   0  0  2  0  0  4           0  0  0
    1.7716    2.5121   -0.0456 C   0  0  0  0  0  4           0  0  0
    0.0000    0.0000    0.0000 C   0  0  0  0  0  4           0  0  0
    1.7869   -2.5212    0.0145 C   0  0  0  0  0  4           0  0  0
    1.5851   -3.0797   -1.3912 C   0  0  0  0  0  4           0  0  0
    2.8517   -3.0929   -2.2478 C   0  0  0  0  0  4           0  0  0
    2.6199   -3.6545   -3.6425 C   0  0  0  0  0  4           0  0  0
  1 12  1  0     0  0
  2  6  2  0     0  0
  2  7  2  0     0  0
  2 11  1  0     0  0
  2 27  1  0     0  0
  3 27  1  0     0  0
  4 27  1  0     0  0
  5 27  1  0     0  0
  8 28  1  0     0  0
  9 13  1  0     0  0
  9 14  1  0     0  0
  9 29  1  0     0  0
 10 12  1  0     0  0
 10 13  2  0     0  0
 11 15  1  0     0  0
 12 14  2  0     0  0
 13 30  1  0     0  0
 14 28  1  0     0  0
 15 16  1  0     0  0
 15 19  2  0     0  0
 16 17  1  0     0  0
 16 20  2  0     0  0
 17 21  2  0     0  0
 17 22  1  0     0  0
 18 23  2  0     0  0
 18 24  1  0     0  0
 18 29  1  0     0  0
 19 25  1  0     0  0
 20 26  1  0     0  0
 21 23  1  0     0  0
 22 24  2  0     0  0
 25 26  2  0     0  0
 30 31  1  0     0  0
 31 32  1  0     0  0
 32 33  1  0     0  0
M  END
> <standard_type>
pIC50

> <# Confs.>
25

> <canonical_smiles>
ClC(N=C1CCCC)=C(CO)N1CC2=CC=C(C3=CC=CC=C3NS(=O)(C(F)(F)F)=O)C=C2

> <standard_relation>
=

> <Publication_ID>
nan

> <predicted_activity_value>
7.022276394711152

> <actual_activity_value>
7.080921907623926

> <Compound>
7

> <standard_units>
nM

> hash
11133345014010873493

$$$$
6
XXILIB    08252103503D 0   0.00000     0.00000

 33 35  0     1  0            999 V2000
    5.0019    1.4987   -0.0650 Cl  0  0  0  0  0  1           0  0  0
   -3.6952   -3.1114    4.7631 S   0  0  1  0  0  6           0  0  0
   -3.7143   -5.0622    6.4763 F   0  0  0  0  0  1           0  0  0
   -5.6807   -4.4073    5.7991 F   0  0  0  0  0  1           0  0  0
   -4.5552   -3.1871    7.2136 F   0  0  0  0  0  1           0  0  0
   -4.5494   -1.9763    4.4699 O   0  0  0  0  0  2           0  0  0
   -3.3740   -4.0835    3.7365 O   0  0  0  0  0  2           0  0  0
    1.6114    2.9030   -1.4027 O   0  0  0  0  0  2           0  0  0
    1.4522    0.0000    0.0000 N   0  0  0  0  0  3           0  0  0
    3.5396   -0.7595   -0.0143 N   0  0  0  0  0  3           0  0  0
   -2.2525   -2.5272    5.5073 N   0  0  0  0  0  3           0  0  0
    3.5478    0.6103   -0.0330 C   0  0  0  0  0  4           0  0  0
    2.2701   -1.1133    0.0000 C   0  0  0  0  0  4           0  0  0
    2.2624    1.1179   -0.0275 C   0  0  0  0  0  4           0  0  0
   -2.3624   -1.2313    6.1242 C   0  0  0  0  0  4           0  0  0
   -2.0954   -0.0431    5.4059 C   0  0  0  0  0  4           0  0  0
   -1.5631   -0.0295    4.0341 C   0  0  0  0  0  4           0  0  0
   -0.5411   -0.0000    1.3972 C   0  0  0  0  0  4           0  0  0
   -2.8605   -1.1856    7.4358 C   0  0  0  0  0  4           0  0  0
   -2.3388    1.1781    6.0681 C   0  0  0  0  0  4           0  0  0
   -0.1801   -0.0118    3.8002 C   0  0  0  0  0  4           0  0  0
   -2.4272   -0.0384    2.9290 C   0  0  0  0  0  4           0  0  0
    0.3251    0.0000    2.4971 C   0  0  0  0  0  4           0  0  0
   -1.9221   -0.0261    1.6260 C   0  0  0  0  0  4           0  0  0
   -3.0826    0.0371    8.0624 C   0  0  0  0  0  4           0  0  0
   -2.8224    1.2185    7.3786 C   0  0  0  0  0  4           0  0  0
   -4.4368   -3.9741    6.1169 C   0  0  2  0  0  4           0  0  0
    1.7716    2.5121   -0.0456 C   0  0  0  0  0  4           0  0  0
    0.0000    0.0000   -0.0000 C   0  0  0  0  0  4           0  0  0
    1.7869   -2.5212    0.0145 C   0  0  0  0  0  4           0  0  0
    2.5522   -3.3868    1.0114 C   0  0  0  0  0  4           0  0  0
    2.4551   -2.9082    2.4605 C   0  0  0  0  0  4           0  0  0
    3.2272   -3.7899    3.4304 C   0  0  0  0  0  4           0  0  0
  1 12  1  0     0  0
  2  6  2  0     0  0
  2  7  2  0     0  0
  2 11  1  0     0  0
  2 27  1  0     0  0
  3 27  1  0     0  0
  4 27  1  0     0  0
  5 27  1  0     0  0
  8 28  1  0     0  0
  9 13  1  0     0  0
  9 14  1  0     0  0
  9 29  1  0     0  0
 10 12  1  0     0  0
 10 13  2  0     0  0
 11 15  1  0     0  0
 12 14  2  0     0  0
 13 30  1  0     0  0
 14 28  1  0     0  0
 15 16  1  0     0  0
 15 19  2  0     0  0
 16 17  1  0     0  0
 16 20  2  0     0  0
 17 21  2  0     0  0
 17 22  1  0     0  0
 18 23  2  0     0  0
 18 24  1  0     0  0
 18 29  1  0     0  0
 19 25  1  0     0  0
 20 26  1  0     0  0
 21 23  1  0     0  0
 22 24  2  0     0  0
 25 26  2  0     0  0
 30 31  1  0     0  0
 31 32  1  0     0  0
 32 33  1  0     0  0
M  END
> <standard_type>
pIC50

> <# Confs.>
25

> <canonical_smiles>
ClC(N=C1CCCC)=C(CO)N1CC2=CC=C(C3=CC=CC=C3NS(=O)(C(F)(F)F)=O)C=C2

> <standard_relation>
=

> <Publication_ID>
nan

> <predicted_activity_value>
7.022276394711152

> <actual_activity_value>
7.080921907623926

> <Compound>
7

> <standard_units>
nM

> hash
11133345014010873493

$$$$
6
XXILIB    08252103503D 0   0.00000     0.00000

 33 35  0     1  0            999 V2000
    5.0019    1.4987   -0.0650 Cl  0  0  0  0  0  1           0  0  0
   -3.6952   -3.1114    4.7631 S   0  0  1  0  0  6           0  0  0
   -3.7143   -5.0622    6.4763 F   0  0  0  0  0  1           0  0  0
   -5.6807   -4.4073    5.7991 F   0  0  0  0  0  1           0  0  0
   -4.5552   -3.1871    7.2136 F   0  0  0  0  0  1           0  0  0
   -4.5494   -1.9763    4.4699 O   0  0  0  0  0  2           0  0  0
   -3.3740   -4.0835    3.7365 O   0  0  0  0  0  2           0  0  0
    1.6114    2.9030   -1.4027 O   0  0  0  0  0  2           0  0  0
    1.4522    0.0000    0.0000 N   0  0  0  0  0  3           0  0  0
    3.5396   -0.7595   -0.0143 N   0  0  0  0  0  3           0  0  0
   -2.2525   -2.5272    5.5073 N   0  0  0  0  0  3           0  0  0
    3.5478    0.6103   -0.0330 C   0  0  0  0  0  4           0  0  0
    2.2701   -1.1133    0.0000 C   0  0  0  0  0  4           0  0  0
    2.2624    1.1179   -0.0275 C   0  0  0  0  0  4           0  0  0
   -2.3624   -1.2313    6.1242 C   0  0  0  0  0  4           0  0  0
   -2.0954   -0.0431    5.4059 C   0  0  0  0  0  4           0  0  0
   -1.5631   -0.0295    4.0341 C   0  0  0  0  0  4           0  0  0
   -0.5411   -0.0000    1.3972 C   0  0  0  0  0  4           0  0  0
   -2.8605   -1.1856    7.4358 C   0  0  0  0  0  4           0  0  0
   -2.3388    1.1781    6.0681 C   0  0  0  0  0  4           0  0  0
   -0.1801   -0.0118    3.8002 C   0  0  0  0  0  4           0  0  0
   -2.4272   -0.0384    2.9290 C   0  0  0  0  0  4           0  0  0
    0.3251    0.0000    2.4971 C   0  0  0  0  0  4           0  0  0
   -1.9221   -0.0261    1.6260 C   0  0  0  0  0  4           0  0  0
   -3.0826    0.0371    8.0624 C   0  0  0  0  0  4           0  0  0
   -2.8224    1.2185    7.3786 C   0  0  0  0  0  4           0  0  0
   -4.4368   -3.9741    6.1169 C   0  0  2  0  0  4           0  0  0
    1.7716    2.5121   -0.0456 C   0  0  0  0  0  4           0  0  0
    0.0000    0.0000   -0.0000 C   0  0  0  0  0  4           0  0  0
    1.7869   -2.5212    0.0145 C   0  0  0  0  0  4           0  0  0
    2.9337   -3.5280    0.0106 C   0  0  0  0  0  4           0  0  0
    2.4841   -4.9895    0.0252 C   0  0  0  0  0  4           0  0  0
    3.6480   -5.9691    0.0209 C   0  0  0  0  0  4           0  0  0
  1 12  1  0     0  0
  2  6  2  0     0  0
  2  7  2  0     0  0
  2 11  1  0     0  0
  2 27  1  0     0  0
  3 27  1  0     0  0
  4 27  1  0     0  0
  5 27  1  0     0  0
  8 28  1  0     0  0
  9 13  1  0     0  0
  9 14  1  0     0  0
  9 29  1  0     0  0
 10 12  1  0     0  0
 10 13  2  0     0  0
 11 15  1  0     0  0
 12 14  2  0     0  0
 13 30  1  0     0  0
 14 28  1  0     0  0
 15 16  1  0     0  0
 15 19  2  0     0  0
 16 17  1  0     0  0
 16 20  2  0     0  0
 17 21  2  0     0  0
 17 22  1  0     0  0
 18 23  2  0     0  0
 18 24  1  0     0  0
 18 29  1  0     0  0
 19 25  1  0     0  0
 20 26  1  0     0  0
 21 23  1  0     0  0
 22 24  2  0     0  0
 25 26  2  0     0  0
 30 31  1  0     0  0
 31 32  1  0     0  0
 32 33  1  0     0  0
M  END
> <standard_type>
pIC50

> <# Confs.>
25

> <canonical_smiles>
ClC(N=C1CCCC)=C(CO)N1CC2=CC=C(C3=CC=CC=C3NS(=O)(C(F)(F)F)=O)C=C2

> <standard_relation>
=

> <Publication_ID>
nan

> <predicted_activity_value>
7.022276394711152

> <actual_activity_value>
7.080921907623926

> <Compound>
7

> <standard_units>
nM

> hash
11133345014010873493

$$$$
6
XXILIB    08252103503D 0   0.00000     0.00000

 33 35  0     1  0            999 V2000
    5.0019    1.4987   -0.0650 Cl  0  0  0  0  0  1           0  0  0
   -3.2943    3.1848    4.6776 S   0  0  1  0  0  6           0  0  0
   -4.8225    3.1985    6.7764 F   0  0  0  0  0  1           0  0  0
   -5.1508    4.8433    5.3832 F   0  0  0  0  0  1           0  0  0
   -3.3925    4.8450    6.6735 F   0  0  0  0  0  1           0  0  0
   -2.6732    4.1904    3.8367 O   0  0  0  0  0  2           0  0  0
   -4.1708    2.1796    4.1086 O   0  0  0  0  0  2           0  0  0
    1.6114    2.9030   -1.4027 O   0  0  0  0  0  2           0  0  0
    1.4522    0.0000    0.0000 N   0  0  0  0  0  3           0  0  0
    3.5396   -0.7595   -0.0143 N   0  0  0  0  0  3           0  0  0
   -2.0644    2.4378    5.6292 N   0  0  0  0  0  3           0  0  0
    3.5478    0.6103   -0.0330 C   0  0  0  0  0  4           0  0  0
    2.2701   -1.1133    0.0000 C   0  0  0  0  0  4           0  0  0
    2.2624    1.1179   -0.0275 C   0  0  0  0  0  4           0  0  0
   -2.3907    1.1309    6.1365 C   0  0  0  0  0  4           0  0  0
   -2.0954   -0.0431    5.4059 C   0  0  0  0  0  4           0  0  0
   -1.5631   -0.0295    4.0341 C   0  0  0  0  0  4           0  0  0
   -0.5411    0.0000    1.3972 C   0  0  0  0  0  4           0  0  0
   -2.9073    1.0594    7.4397 C   0  0  0  0  0  4           0  0  0
   -2.3542   -1.2769    6.0379 C   0  0  0  0  0  4           0  0  0
   -0.1801   -0.0118    3.8002 C   0  0  0  0  0  4           0  0  0
   -2.4272   -0.0384    2.9290 C   0  0  0  0  0  4           0  0  0
    0.3251   -0.0000    2.4971 C   0  0  0  0  0  4           0  0  0
   -1.9221   -0.0261    1.6260 C   0  0  0  0  0  4           0  0  0
   -3.1578   -0.1753    8.0311 C   0  0  0  0  0  4           0  0  0
   -2.8809   -1.3430    7.3307 C   0  0  0  0  0  4           0  0  0
   -4.1972    4.0497    5.9280 C   0  0  2  0  0  4           0  0  0
    1.7716    2.5121   -0.0456 C   0  0  0  0  0  4           0  0  0
    0.0000    0.0000    0.0000 C   0  0  0  0  0  4           0  0  0
    1.7869   -2.5212    0.0145 C   0  0  0  0  0  4           0  0  0
    1.5851   -3.0797   -1.3912 C   0  0  0  0  0  4           0  0  0
    1.0886   -4.5256   -1.4255 C   0  0  0  0  0  4           0  0  0
    0.8969   -5.0545   -2.8390 C   0  0  0  0  0  4           0  0  0
  1 12  1  0     0  0
  2  6  2  0     0  0
  2  7  2  0     0  0
  2 11  1  0     0  0
  2 27  1  0     0  0
  3 27  1  0     0  0
  4 27  1  0     0  0
  5 27  1  0     0  0
  8 28  1  0     0  0
  9 13  1  0     0  0
  9 14  1  0     0  0
  9 29  1  0     0  0
 10 12  1  0     0  0
 10 13  2  0     0  0
 11 15  1  0     0  0
 12 14  2  0     0  0
 13 30  1  0     0  0
 14 28  1  0     0  0
 15 16  1  0     0  0
 15 19  2  0     0  0
 16 17  1  0     0  0
 16 20  2  0     0  0
 17 21  2  0     0  0
 17 22  1  0     0  0
 18 23  2  0     0  0
 18 24  1  0     0  0
 18 29  1  0     0  0
 19 25  1  0     0  0
 20 26  1  0     0  0
 21 23  1  0     0  0
 22 24  2  0     0  0
 25 26  2  0     0  0
 30 31  1  0     0  0
 31 32  1  0     0  0
 32 33  1  0     0  0
M  END
> <standard_type>
pIC50

> <# Confs.>
25

> <canonical_smiles>
ClC(N=C1CCCC)=C(CO)N1CC2=CC=C(C3=CC=CC=C3NS(=O)(C(F)(F)F)=O)C=C2

> <standard_relation>
=

> <Publication_ID>
nan

> <predicted_activity_value>
7.022276394711152

> <actual_activity_value>
7.080921907623926

> <Compound>
7

> <standard_units>
nM

> hash
11133345014010873493

$$$$
6
XXILIB    08252103503D 0   0.00000     0.00000

 33 35  0     1  0            999 V2000
    5.0019    1.4987   -0.0650 Cl  0  0  0  0  0  1           0  0  0
   -0.5013    3.0251    6.0630 S   0  0  1  0  0  6           0  0  0
   -1.6556    4.9461    7.3737 F   0  0  0  0  0  1           0  0  0
    0.2572    4.2899    8.1891 F   0  0  0  0  0  1           0  0  0
   -1.5196    3.0532    8.4530 F   0  0  0  0  0  1           0  0  0
    0.3347    1.8895    6.4034 O   0  0  0  0  0  2           0  0  0
   -0.0524    4.0168    5.1052 O   0  0  0  0  0  2           0  0  0
    1.6114    2.9030   -1.4027 O   0  0  0  0  0  2           0  0  0
    1.4522    0.0000    0.0000 N   0  0  0  0  0  3           0  0  0
    3.5396   -0.7595   -0.0143 N   0  0  0  0  0  3           0  0  0
   -2.0644    2.4378    5.6292 N   0  0  0  0  0  3           0  0  0
    3.5478    0.6103   -0.0330 C   0  0  0  0  0  4           0  0  0
    2.2701   -1.1133    0.0000 C   0  0  0  0  0  4           0  0  0
    2.2624    1.1179   -0.0275 C   0  0  0  0  0  4           0  0  0
   -2.3907    1.1309    6.1365 C   0  0  0  0  0  4           0  0  0
   -2.0954   -0.0431    5.4059 C   0  0  0  0  0  4           0  0  0
   -1.5631   -0.0295    4.0341 C   0  0  0  0  0  4           0  0  0
   -0.5411    0.0000    1.3972 C   0  0  0  0  0  4           0  0  0
   -2.9073    1.0594    7.4397 C   0  0  0  0  0  4           0  0  0
   -2.3542   -1.2769    6.0379 C   0  0  0  0  0  4           0  0  0
   -0.1801   -0.0118    3.8002 C   0  0  0  0  0  4           0  0  0
   -2.4272   -0.0384    2.9290 C   0  0  0  0  0  4           0  0  0
    0.3251   -0.0000    2.4971 C   0  0  0  0  0  4           0  0  0
   -1.9221   -0.0261    1.6260 C   0  0  0  0  0  4           0  0  0
   -3.1578   -0.1753    8.0311 C   0  0  0  0  0  4           0  0  0
   -2.8809   -1.3430    7.3307 C   0  0  0  0  0  4           0  0  0
   -0.8725    3.8596    7.5772 C   0  0  2  0  0  4           0  0  0
    1.7716    2.5121   -0.0456 C   0  0  0  0  0  4           0  0  0
    0.0000    0.0000    0.0000 C   0  0  0  0  0  4           0  0  0
    1.7869   -2.5212    0.0145 C   0  0  0  0  0  4           0  0  0
    1.5851   -3.0797   -1.3912 C   0  0  0  0  0  4           0  0  0
    2.8517   -3.0929   -2.2478 C   0  0  0  0  0  4           0  0  0
    2.6199   -3.6545   -3.6425 C   0  0  0  0  0  4           0  0  0
  1 12  1  0     0  0
  2  6  2  0     0  0
  2  7  2  0     0  0
  2 11  1  0     0  0
  2 27  1  0     0  0
  3 27  1  0     0  0
  4 27  1  0     0  0
  5 27  1  0     0  0
  8 28  1  0     0  0
  9 13  1  0     0  0
  9 14  1  0     0  0
  9 29  1  0     0  0
 10 12  1  0     0  0
 10 13  2  0     0  0
 11 15  1  0     0  0
 12 14  2  0     0  0
 13 30  1  0     0  0
 14 28  1  0     0  0
 15 16  1  0     0  0
 15 19  2  0     0  0
 16 17  1  0     0  0
 16 20  2  0     0  0
 17 21  2  0     0  0
 17 22  1  0     0  0
 18 23  2  0     0  0
 18 24  1  0     0  0
 18 29  1  0     0  0
 19 25  1  0     0  0
 20 26  1  0     0  0
 21 23  1  0     0  0
 22 24  2  0     0  0
 25 26  2  0     0  0
 30 31  1  0     0  0
 31 32  1  0     0  0
 32 33  1  0     0  0
M  END
> <standard_type>
pIC50

> <# Confs.>
25

> <canonical_smiles>
ClC(N=C1CCCC)=C(CO)N1CC2=CC=C(C3=CC=CC=C3NS(=O)(C(F)(F)F)=O)C=C2

> <standard_relation>
=

> <Publication_ID>
nan

> <predicted_activity_value>
7.022276394711152

> <actual_activity_value>
7.080921907623926

> <Compound>
7

> <standard_units>
nM

> hash
11133345014010873493

$$$$
6
XXILIB    08252103503D 0   0.00000     0.00000

 33 35  0     1  0            999 V2000
    5.0019    1.4987   -0.0650 Cl  0  0  0  0  0  1           0  0  0
   -0.6977   -3.2659    5.6217 S   0  0  1  0  0  6           0  0  0
   -0.9850   -3.3257    8.2013 F   0  0  0  0  0  1           0  0  0
    0.2079   -4.9485    7.3663 F   0  0  0  0  0  1           0  0  0
   -1.9604   -4.9607    7.1327 F   0  0  0  0  0  1           0  0  0
   -0.5824   -4.2528    4.5648 O   0  0  0  0  0  2           0  0  0
    0.3264   -2.2569    5.8101 O   0  0  0  0  0  2           0  0  0
    1.6114    2.9030   -1.4027 O   0  0  0  0  0  2           0  0  0
    1.4522    0.0000    0.0000 N   0  0  0  0  0  3           0  0  0
    3.5396   -0.7595   -0.0143 N   0  0  0  0  0  3           0  0  0
   -2.2525   -2.5272    5.5073 N   0  0  0  0  0  3           0  0  0
    3.5478    0.6103   -0.0330 C   0  0  0  0  0  4           0  0  0
    2.2701   -1.1133    0.0000 C   0  0  0  0  0  4           0  0  0
    2.2624    1.1179   -0.0275 C   0  0  0  0  0  4           0  0  0
   -2.3624   -1.2313    6.1242 C   0  0  0  0  0  4           0  0  0
   -2.0954   -0.0431    5.4059 C   0  0  0  0  0  4           0  0  0
   -1.5631   -0.0295    4.0341 C   0  0  0  0  0  4           0  0  0
   -0.5411   -0.0000    1.3972 C   0  0  0  0  0  4           0  0  0
   -2.8605   -1.1856    7.4358 C   0  0  0  0  0  4           0  0  0
   -2.3388    1.1781    6.0681 C   0  0  0  0  0  4           0  0  0
   -0.1801   -0.0118    3.8002 C   0  0  0  0  0  4           0  0  0
   -2.4272   -0.0384    2.9290 C   0  0  0  0  0  4           0  0  0
    0.3251    0.0000    2.4971 C   0  0  0  0  0  4           0  0  0
   -1.9221   -0.0261    1.6260 C   0  0  0  0  0  4           0  0  0
   -3.0826    0.0371    8.0624 C   0  0  0  0  0  4           0  0  0
   -2.8224    1.2185    7.3786 C   0  0  0  0  0  4           0  0  0
   -0.8687   -4.1580    7.1388 C   0  0  2  0  0  4           0  0  0
    1.7716    2.5121   -0.0456 C   0  0  0  0  0  4           0  0  0
    0.0000    0.0000   -0.0000 C   0  0  0  0  0  4           0  0  0
    1.7869   -2.5212    0.0145 C   0  0  0  0  0  4           0  0  0
    2.5522   -3.3868    1.0114 C   0  0  0  0  0  4           0  0  0
    2.4551   -2.9082    2.4605 C   0  0  0  0  0  4           0  0  0
    3.2272   -3.7899    3.4304 C   0  0  0  0  0  4           0  0  0
  1 12  1  0     0  0
  2  6  2  0     0  0
  2  7  2  0     0  0
  2 11  1  0     0  0
  2 27  1  0     0  0
  3 27  1  0     0  0
  4 27  1  0     0  0
  5 27  1  0     0  0
  8 28  1  0     0  0
  9 13  1  0     0  0
  9 14  1  0     0  0
  9 29  1  0     0  0
 10 12  1  0     0  0
 10 13  2  0     0  0
 11 15  1  0     0  0
 12 14  2  0     0  0
 13 30  1  0     0  0
 14 28  1  0     0  0
 15 16  1  0     0  0
 15 19  2  0     0  0
 16 17  1  0     0  0
 16 20  2  0     0  0
 17 21  2  0     0  0
 17 22  1  0     0  0
 18 23  2  0     0  0
 18 24  1  0     0  0
 18 29  1  0     0  0
 19 25  1  0     0  0
 20 26  1  0     0  0
 21 23  1  0     0  0
 22 24  2  0     0  0
 25 26  2  0     0  0
 30 31  1  0     0  0
 31 32  1  0     0  0
 32 33  1  0     0  0
M  END
> <standard_type>
pIC50

> <# Confs.>
25

> <canonical_smiles>
ClC(N=C1CCCC)=C(CO)N1CC2=CC=C(C3=CC=CC=C3NS(=O)(C(F)(F)F)=O)C=C2

> <standard_relation>
=

> <Publication_ID>
nan

> <predicted_activity_value>
7.022276394711152

> <actual_activity_value>
7.080921907623926

> <Compound>
7

> <standard_units>
nM

> hash
11133345014010873493

$$$$
6
XXILIB    08252103503D 0   0.00000     0.00000

 33 35  0     1  0            999 V2000
    5.0019    1.4987   -0.0650 Cl  0  0  0  0  0  1           0  0  0
   -1.6191    3.4432    5.3302 S   0  0  1  0  0  6           0  0  0
   -3.0482    3.7847    7.4707 F   0  0  0  0  0  1           0  0  0
   -2.5143    5.6156    6.4139 F   0  0  0  0  0  1           0  0  0
   -1.0123    4.5635    7.5944 F   0  0  0  0  0  1           0  0  0
   -0.5670    4.1780    4.6539 O   0  0  0  0  0  2           0  0  0
   -2.8395    3.0844    4.6342 O   0  0  0  0  0  2           0  0  0
    1.6114    2.9030   -1.4027 O   0  0  0  0  0  2           0  0  0
    1.4522    0.0000    0.0000 N   0  0  0  0  0  3           0  0  0
    3.5396   -0.7595   -0.0143 N   0  0  0  0  0  3           0  0  0
   -0.9196    2.0504    6.0697 N   0  0  0  0  0  3           0  0  0
    3.5478    0.6103   -0.0330 C   0  0  0  0  0  4           0  0  0
    2.2701   -1.1133    0.0000 C   0  0  0  0  0  4           0  0  0
    2.2624    1.1179   -0.0275 C   0  0  0  0  0  4           0  0  0
   -1.8383    0.9781    6.3494 C   0  0  0  0  0  4           0  0  0
   -2.0954   -0.0431    5.4059 C   0  0  0  0  0  4           0  0  0
   -1.5631   -0.0295    4.0341 C   0  0  0  0  0  4           0  0  0
   -0.5411    0.0000    1.3972 C   0  0  0  0  0  4           0  0  0
   -2.3810    0.9196    7.6426 C   0  0  0  0  0  4           0  0  0
   -2.9254   -1.1061    5.8179 C   0  0  0  0  0  4           0  0  0
   -0.1801   -0.0118    3.8002 C   0  0  0  0  0  4           0  0  0
   -2.4272   -0.0384    2.9290 C   0  0  0  0  0  4           0  0  0
    0.3251   -0.0000    2.4971 C   0  0  0  0  0  4           0  0  0
   -1.9221   -0.0261    1.6260 C   0  0  0  0  0  4           0  0  0
   -3.2024   -0.1407    8.0141 C   0  0  0  0  0  4           0  0  0
   -3.4741   -1.1534    7.1023 C   0  0  0  0  0  4           0  0  0
   -2.0642    4.3851    6.7591 C   0  0  2  0  0  4           0  0  0
    1.7716    2.5121   -0.0456 C   0  0  0  0  0  4           0  0  0
    0.0000    0.0000    0.0000 C   0  0  0  0  0  4           0  0  0
    1.7869   -2.5212    0.0145 C   0  0  0  0  0  4           0  0  0
    2.9337   -3.5280    0.0106 C   0  0  0  0  0  4           0  0  0
    2.4841   -4.9895    0.0252 C   0  0  0  0  0  4           0  0  0
    3.6480   -5.9691    0.0209 C   0  0  0  0  0  4           0  0  0
  1 12  1  0     0  0
  2  6  2  0     0  0
  2  7  2  0     0  0
  2 11  1  0     0  0
  2 27  1  0     0  0
  3 27  1  0     0  0
  4 27  1  0     0  0
  5 27  1  0     0  0
  8 28  1  0     0  0
  9 13  1  0     0  0
  9 14  1  0     0  0
  9 29  1  0     0  0
 10 12  1  0     0  0
 10 13  2  0     0  0
 11 15  1  0     0  0
 12 14  2  0     0  0
 13 30  1  0     0  0
 14 28  1  0     0  0
 15 16  1  0     0  0
 15 19  2  0     0  0
 16 17  1  0     0  0
 16 20  2  0     0  0
 17 21  2  0     0  0
 17 22  1  0     0  0
 18 23  2  0     0  0
 18 24  1  0     0  0
 18 29  1  0     0  0
 19 25  1  0     0  0
 20 26  1  0     0  0
 21 23  1  0     0  0
 22 24  2  0     0  0
 25 26  2  0     0  0
 30 31  1  0     0  0
 31 32  1  0     0  0
 32 33  1  0     0  0
M  END
> <standard_type>
pIC50

> <# Confs.>
25

> <canonical_smiles>
ClC(N=C1CCCC)=C(CO)N1CC2=CC=C(C3=CC=CC=C3NS(=O)(C(F)(F)F)=O)C=C2

> <standard_relation>
=

> <Publication_ID>
nan

> <predicted_activity_value>
7.022276394711152

> <actual_activity_value>
7.080921907623926

> <Compound>
7

> <standard_units>
nM

> hash
11133345014010873493

$$$$
6
XXILIB    08252103503D 0   0.00000     0.00000

 33 35  0     1  0            999 V2000
    5.0019    1.4987   -0.0650 Cl  0  0  0  0  0  1           0  0  0
   -1.6191    3.4432    5.3302 S   0  0  1  0  0  6           0  0  0
   -3.0482    3.7847    7.4707 F   0  0  0  0  0  1           0  0  0
   -2.5143    5.6156    6.4139 F   0  0  0  0  0  1           0  0  0
   -1.0123    4.5635    7.5944 F   0  0  0  0  0  1           0  0  0
   -0.5670    4.1780    4.6539 O   0  0  0  0  0  2           0  0  0
   -2.8395    3.0844    4.6342 O   0  0  0  0  0  2           0  0  0
    1.6114    2.9030   -1.4027 O   0  0  0  0  0  2           0  0  0
    1.4522    0.0000    0.0000 N   0  0  0  0  0  3           0  0  0
    3.5396   -0.7595   -0.0143 N   0  0  0  0  0  3           0  0  0
   -0.9196    2.0504    6.0697 N   0  0  0  0  0  3           0  0  0
    3.5478    0.6103   -0.0330 C   0  0  0  0  0  4           0  0  0
    2.2701   -1.1133    0.0000 C   0  0  0  0  0  4           0  0  0
    2.2624    1.1179   -0.0275 C   0  0  0  0  0  4           0  0  0
   -1.8383    0.9781    6.3494 C   0  0  0  0  0  4           0  0  0
   -2.0954   -0.0431    5.4059 C   0  0  0  0  0  4           0  0  0
   -1.5631   -0.0295    4.0341 C   0  0  0  0  0  4           0  0  0
   -0.5411    0.0000    1.3972 C   0  0  0  0  0  4           0  0  0
   -2.3810    0.9196    7.6426 C   0  0  0  0  0  4           0  0  0
   -2.9254   -1.1061    5.8179 C   0  0  0  0  0  4           0  0  0
   -0.1801   -0.0118    3.8002 C   0  0  0  0  0  4           0  0  0
   -2.4272   -0.0384    2.9290 C   0  0  0  0  0  4           0  0  0
    0.3251   -0.0000    2.4971 C   0  0  0  0  0  4           0  0  0
   -1.9221   -0.0261    1.6260 C   0  0  0  0  0  4           0  0  0
   -3.2024   -0.1407    8.0141 C   0  0  0  0  0  4           0  0  0
   -3.4741   -1.1534    7.1023 C   0  0  0  0  0  4           0  0  0
   -2.0642    4.3851    6.7591 C   0  0  2  0  0  4           0  0  0
    1.7716    2.5121   -0.0456 C   0  0  0  0  0  4           0  0  0
    0.0000    0.0000    0.0000 C   0  0  0  0  0  4           0  0  0
    1.7869   -2.5212    0.0145 C   0  0  0  0  0  4           0  0  0
    2.5522   -3.3868    1.0114 C   0  0  0  0  0  4           0  0  0
    2.4551   -2.9082    2.4605 C   0  0  0  0  0  4           0  0  0
    3.2272   -3.7899    3.4304 C   0  0  0  0  0  4           0  0  0
  1 12  1  0     0  0
  2  6  2  0     0  0
  2  7  2  0     0  0
  2 11  1  0     0  0
  2 27  1  0     0  0
  3 27  1  0     0  0
  4 27  1  0     0  0
  5 27  1  0     0  0
  8 28  1  0     0  0
  9 13  1  0     0  0
  9 14  1  0     0  0
  9 29  1  0     0  0
 10 12  1  0     0  0
 10 13  2  0     0  0
 11 15  1  0     0  0
 12 14  2  0     0  0
 13 30  1  0     0  0
 14 28  1  0     0  0
 15 16  1  0     0  0
 15 19  2  0     0  0
 16 17  1  0     0  0
 16 20  2  0     0  0
 17 21  2  0     0  0
 17 22  1  0     0  0
 18 23  2  0     0  0
 18 24  1  0     0  0
 18 29  1  0     0  0
 19 25  1  0     0  0
 20 26  1  0     0  0
 21 23  1  0     0  0
 22 24  2  0     0  0
 25 26  2  0     0  0
 30 31  1  0     0  0
 31 32  1  0     0  0
 32 33  1  0     0  0
M  END
> <standard_type>
pIC50

> <# Confs.>
25

> <canonical_smiles>
ClC(N=C1CCCC)=C(CO)N1CC2=CC=C(C3=CC=CC=C3NS(=O)(C(F)(F)F)=O)C=C2

> <standard_relation>
=

> <Publication_ID>
nan

> <predicted_activity_value>
7.022276394711152

> <actual_activity_value>
7.080921907623926

> <Compound>
7

> <standard_units>
nM

> hash
11133345014010873493

$$$$
6
XXILIB    08252103503D 0   0.00000     0.00000

 33 35  0     1  0            999 V2000
    5.0019    1.4987   -0.0650 Cl  0  0  0  0  0  1           0  0  0
   -2.0481   -3.5622    5.3979 S   0  0  1  0  0  6           0  0  0
   -1.2418   -4.9527    7.4368 F   0  0  0  0  0  1           0  0  0
   -3.2505   -5.4247    6.7322 F   0  0  0  0  0  1           0  0  0
   -2.8947   -3.5887    7.8540 F   0  0  0  0  0  1           0  0  0
   -3.3169   -3.0305    4.9379 O   0  0  0  0  0  2           0  0  0
   -1.2605   -4.4388    4.5531 O   0  0  0  0  0  2           0  0  0
    1.6114    2.9030   -1.4027 O   0  0  0  0  0  2           0  0  0
    1.4522    0.0000    0.0000 N   0  0  0  0  0  3           0  0  0
    3.5396   -0.7595   -0.0143 N   0  0  0  0  0  3           0  0  0
   -1.0825   -2.2494    5.9641 N   0  0  0  0  0  3           0  0  0
    3.5478    0.6103   -0.0330 C   0  0  0  0  0  4           0  0  0
    2.2701   -1.1133    0.0000 C   0  0  0  0  0  4           0  0  0
    2.2624    1.1179   -0.0275 C   0  0  0  0  0  4           0  0  0
   -1.8138   -1.0675    6.3387 C   0  0  0  0  0  4           0  0  0
   -2.0954   -0.0431    5.4059 C   0  0  0  0  0  4           0  0  0
   -1.5631   -0.0295    4.0341 C   0  0  0  0  0  4           0  0  0
   -0.5411   -0.0000    1.3972 C   0  0  0  0  0  4           0  0  0
   -2.3404   -1.0246    7.6392 C   0  0  0  0  0  4           0  0  0
   -2.9121    1.0199    5.8440 C   0  0  0  0  0  4           0  0  0
   -0.1801   -0.0118    3.8002 C   0  0  0  0  0  4           0  0  0
   -2.4272   -0.0384    2.9290 C   0  0  0  0  0  4           0  0  0
    0.3251    0.0000    2.4971 C   0  0  0  0  0  4           0  0  0
   -1.9221   -0.0261    1.6260 C   0  0  0  0  0  4           0  0  0
   -3.1372    0.0433    8.0412 C   0  0  0  0  0  4           0  0  0
   -3.4234    1.0649    7.1439 C   0  0  0  0  0  4           0  0  0
   -2.3690   -4.4121    6.9150 C   0  0  2  0  0  4           0  0  0
    1.7716    2.5121   -0.0456 C   0  0  0  0  0  4           0  0  0
    0.0000    0.0000   -0.0000 C   0  0  0  0  0  4           0  0  0
    1.7869   -2.5212    0.0145 C   0  0  0  0  0  4           0  0  0
    1.5851   -3.0797   -1.3912 C   0  0  0  0  0  4           0  0  0
    1.0886   -4.5256   -1.4255 C   0  0  0  0  0  4           0  0  0
    0.8969   -5.0545   -2.8390 C   0  0  0  0  0  4           0  0  0
  1 12  1  0     0  0
  2  6  2  0     0  0
  2  7  2  0     0  0
  2 11  1  0     0  0
  2 27  1  0     0  0
  3 27  1  0     0  0
  4 27  1  0     0  0
  5 27  1  0     0  0
  8 28  1  0     0  0
  9 13  1  0     0  0
  9 14  1  0     0  0
  9 29  1  0     0  0
 10 12  1  0     0  0
 10 13  2  0     0  0
 11 15  1  0     0  0
 12 14  2  0     0  0
 13 30  1  0     0  0
 14 28  1  0     0  0
 15 16  1  0     0  0
 15 19  2  0     0  0
 16 17  1  0     0  0
 16 20  2  0     0  0
 17 21  2  0     0  0
 17 22  1  0     0  0
 18 23  2  0     0  0
 18 24  1  0     0  0
 18 29  1  0     0  0
 19 25  1  0     0  0
 20 26  1  0     0  0
 21 23  1  0     0  0
 22 24  2  0     0  0
 25 26  2  0     0  0
 30 31  1  0     0  0
 31 32  1  0     0  0
 32 33  1  0     0  0
M  END
> <standard_type>
pIC50

> <# Confs.>
25

> <canonical_smiles>
ClC(N=C1CCCC)=C(CO)N1CC2=CC=C(C3=CC=CC=C3NS(=O)(C(F)(F)F)=O)C=C2

> <standard_relation>
=

> <Publication_ID>
nan

> <predicted_activity_value>
7.022276394711152

> <actual_activity_value>
7.080921907623926

> <Compound>
7

> <standard_units>
nM

> hash
11133345014010873493

$$$$
6
XXILIB    08252103503D 0   0.00000     0.00000

 33 35  0     1  0            999 V2000
    5.0019   -1.4987    0.0650 Cl  0  0  0  0  0  1           0  0  0
   -4.9281    1.7221    4.3487 S   0  0  1  0  0  6           0  0  0
   -7.3114    1.1190    5.1835 F   0  0  0  0  0  1           0  0  0
   -6.7246    3.1971    5.4853 F   0  0  0  0  0  1           0  0  0
   -5.8919    1.6355    6.7598 F   0  0  0  0  0  1           0  0  0
   -3.8748    2.6245    4.7732 O   0  0  0  0  0  2           0  0  0
   -5.4718    1.7948    3.0065 O   0  0  0  0  0  2           0  0  0
    1.6114   -2.9030    1.4027 O   0  0  0  0  0  2           0  0  0
    1.4522    0.0000   -0.0000 N   0  0  0  0  0  3           0  0  0
    3.5396    0.7595    0.0143 N   0  0  0  0  0  3           0  0  0
   -4.4382    0.1078    4.7099 N   0  0  0  0  0  3           0  0  0
    3.5478   -0.6103    0.0330 C   0  0  0  0  0  4           0  0  0
    2.2701    1.1133   -0.0000 C   0  0  0  0  0  4           0  0  0
    2.2624   -1.1179    0.0275 C   0  0  0  0  0  4           0  0  0
   -3.4328   -0.0133    5.7329 C   0  0  0  0  0  4           0  0  0
   -2.0536   -0.0018    5.4221 C   0  0  0  0  0  4           0  0  0
   -1.5348   -0.0008    4.0451 C   0  0  0  0  0  4           0  0  0
   -0.5411   -0.0000    1.3972 C   0  0  0  0  0  4           0  0  0
   -3.8725   -0.0244    7.0660 C   0  0  0  0  0  4           0  0  0
   -1.1496   -0.0149    6.5044 C   0  0  0  0  0  4           0  0  0
   -1.2923    1.2044    3.3695 C   0  0  0  0  0  4           0  0  0
   -1.2671   -1.2056    3.3783 C   0  0  0  0  0  4           0  0  0
   -0.7985    1.2049    2.0620 C   0  0  0  0  0  4           0  0  0
   -0.7739   -1.2052    2.0706 C   0  0  0  0  0  4           0  0  0
   -2.9529   -0.0445    8.1104 C   0  0  0  0  0  4           0  0  0
   -1.5920   -0.0392    7.8298 C   0  0  0  0  0  4           0  0  0
   -6.2646    1.9227    5.4891 C   0  0  2  0  0  4           0  0  0
    1.7716   -2.5121    0.0456 C   0  0  0  0  0  4           0  0  0
    0.0000    0.0000    0.0000 C   0  0  0  0  0  4           0  0  0
    1.7869    2.5212   -0.0145 C   0  0  0  0  0  4           0  0  0
    2.5522    3.3868   -1.0114 C   0  0  0  0  0  4           0  0  0
    2.0894    4.8434   -1.0609 C   0  0  0  0  0  4           0  0  0
    2.8698    5.6810   -2.0627 C   0  0  0  0  0  4           0  0  0
  1 12  1  0     0  0
  2  6  2  0     0  0
  2  7  2  0     0  0
  2 11  1  0     0  0
  2 27  1  0     0  0
  3 27  1  0     0  0
  4 27  1  0     0  0
  5 27  1  0     0  0
  8 28  1  0     0  0
  9 13  1  0     0  0
  9 14  1  0     0  0
  9 29  1  0     0  0
 10 12  1  0     0  0
 10 13  2  0     0  0
 11 15  1  0     0  0
 12 14  2  0     0  0
 13 30  1  0     0  0
 14 28  1  0     0  0
 15 16  1  0     0  0
 15 19  2  0     0  0
 16 17  1  0     0  0
 16 20  2  0     0  0
 17 21  2  0     0  0
 17 22  1  0     0  0
 18 23  2  0     0  0
 18 24  1  0     0  0
 18 29  1  0     0  0
 19 25  1  0     0  0
 20 26  1  0     0  0
 21 23  1  0     0  0
 22 24  2  0     0  0
 25 26  2  0     0  0
 30 31  1  0     0  0
 31 32  1  0     0  0
 32 33  1  0     0  0
M  END
> <standard_type>
pIC50

> <# Confs.>
25

> <canonical_smiles>
ClC(N=C1CCCC)=C(CO)N1CC2=CC=C(C3=CC=CC=C3NS(=O)(C(F)(F)F)=O)C=C2

> <standard_relation>
=

> <Publication_ID>
nan

> <predicted_activity_value>
7.022276394711152

> <actual_activity_value>
7.080921907623926

> <Compound>
7

> <standard_units>
nM

> hash
11133345014010873493

$$$$
6
XXILIB    08252103503D 0   0.00000     0.00000

 33 35  0     1  0            999 V2000
    5.0019   -1.4987    0.0650 Cl  0  0  0  0  0  1           0  0  0
   -4.9281    1.7221    4.3487 S   0  0  1  0  0  6           0  0  0
   -7.3114    1.1190    5.1835 F   0  0  0  0  0  1           0  0  0
   -6.7246    3.1971    5.4853 F   0  0  0  0  0  1           0  0  0
   -5.8919    1.6355    6.7598 F   0  0  0  0  0  1           0  0  0
   -3.8748    2.6245    4.7732 O   0  0  0  0  0  2           0  0  0
   -5.4718    1.7948    3.0065 O   0  0  0  0  0  2           0  0  0
    1.6114   -2.9030    1.4027 O   0  0  0  0  0  2           0  0  0
    1.4522    0.0000   -0.0000 N   0  0  0  0  0  3           0  0  0
    3.5396    0.7595    0.0143 N   0  0  0  0  0  3           0  0  0
   -4.4382    0.1078    4.7099 N   0  0  0  0  0  3           0  0  0
    3.5478   -0.6103    0.0330 C   0  0  0  0  0  4           0  0  0
    2.2701    1.1133   -0.0000 C   0  0  0  0  0  4           0  0  0
    2.2624   -1.1179    0.0275 C   0  0  0  0  0  4           0  0  0
   -3.4328   -0.0133    5.7329 C   0  0  0  0  0  4           0  0  0
   -2.0536   -0.0018    5.4221 C   0  0  0  0  0  4           0  0  0
   -1.5348   -0.0008    4.0451 C   0  0  0  0  0  4           0  0  0
   -0.5411   -0.0000    1.3972 C   0  0  0  0  0  4           0  0  0
   -3.8725   -0.0244    7.0660 C   0  0  0  0  0  4           0  0  0
   -1.1496   -0.0149    6.5044 C   0  0  0  0  0  4           0  0  0
   -1.2923    1.2044    3.3695 C   0  0  0  0  0  4           0  0  0
   -1.2671   -1.2056    3.3783 C   0  0  0  0  0  4           0  0  0
   -0.7985    1.2049    2.0620 C   0  0  0  0  0  4           0  0  0
   -0.7739   -1.2052    2.0706 C   0  0  0  0  0  4           0  0  0
   -2.9529   -0.0445    8.1104 C   0  0  0  0  0  4           0  0  0
   -1.5920   -0.0392    7.8298 C   0  0  0  0  0  4           0  0  0
   -6.2646    1.9227    5.4891 C   0  0  2  0  0  4           0  0  0
    1.7716   -2.5121    0.0456 C   0  0  0  0  0  4           0  0  0
    0.0000    0.0000    0.0000 C   0  0  0  0  0  4           0  0  0
    1.7869    2.5212   -0.0145 C   0  0  0  0  0  4           0  0  0
    2.5522    3.3868   -1.0114 C   0  0  0  0  0  4           0  0  0
    2.4551    2.9082   -2.4605 C   0  0  0  0  0  4           0  0  0
    3.2272    3.7899   -3.4304 C   0  0  0  0  0  4           0  0  0
  1 12  1  0     0  0
  2  6  2  0     0  0
  2  7  2  0     0  0
  2 11  1  0     0  0
  2 27  1  0     0  0
  3 27  1  0     0  0
  4 27  1  0     0  0
  5 27  1  0     0  0
  8 28  1  0     0  0
  9 13  1  0     0  0
  9 14  1  0     0  0
  9 29  1  0     0  0
 10 12  1  0     0  0
 10 13  2  0     0  0
 11 15  1  0     0  0
 12 14  2  0     0  0
 13 30  1  0     0  0
 14 28  1  0     0  0
 15 16  1  0     0  0
 15 19  2  0     0  0
 16 17  1  0     0  0
 16 20  2  0     0  0
 17 21  2  0     0  0
 17 22  1  0     0  0
 18 23  2  0     0  0
 18 24  1  0     0  0
 18 29  1  0     0  0
 19 25  1  0     0  0
 20 26  1  0     0  0
 21 23  1  0     0  0
 22 24  2  0     0  0
 25 26  2  0     0  0
 30 31  1  0     0  0
 31 32  1  0     0  0
 32 33  1  0     0  0
M  END
> <standard_type>
pIC50

> <# Confs.>
25

> <canonical_smiles>
ClC(N=C1CCCC)=C(CO)N1CC2=CC=C(C3=CC=CC=C3NS(=O)(C(F)(F)F)=O)C=C2

> <standard_relation>
=

> <Publication_ID>
nan

> <predicted_activity_value>
7.022276394711152

> <actual_activity_value>
7.080921907623926

> <Compound>
7

> <standard_units>
nM

> hash
11133345014010873493

$$$$
6
XXILIB    08252103503D 0   0.00000     0.00000

 33 35  0     1  0            999 V2000
    5.0019    1.4987   -0.0650 Cl  0  0  0  0  0  1           0  0  0
   -0.6977   -3.2659    5.6217 S   0  0  1  0  0  6           0  0  0
   -0.9850   -3.3257    8.2013 F   0  0  0  0  0  1           0  0  0
    0.2079   -4.9485    7.3663 F   0  0  0  0  0  1           0  0  0
   -1.9604   -4.9607    7.1327 F   0  0  0  0  0  1           0  0  0
   -0.5824   -4.2528    4.5648 O   0  0  0  0  0  2           0  0  0
    0.3264   -2.2569    5.8101 O   0  0  0  0  0  2           0  0  0
    1.6114    2.9030   -1.4027 O   0  0  0  0  0  2           0  0  0
    1.4522    0.0000    0.0000 N   0  0  0  0  0  3           0  0  0
    3.5396   -0.7595   -0.0143 N   0  0  0  0  0  3           0  0  0
   -2.2525   -2.5272    5.5073 N   0  0  0  0  0  3           0  0  0
    3.5478    0.6103   -0.0330 C   0  0  0  0  0  4           0  0  0
    2.2701   -1.1133    0.0000 C   0  0  0  0  0  4           0  0  0
    2.2624    1.1179   -0.0275 C   0  0  0  0  0  4           0  0  0
   -2.3624   -1.2313    6.1242 C   0  0  0  0  0  4           0  0  0
   -2.0954   -0.0431    5.4059 C   0  0  0  0  0  4           0  0  0
   -1.5631   -0.0295    4.0341 C   0  0  0  0  0  4           0  0  0
   -0.5411   -0.0000    1.3972 C   0  0  0  0  0  4           0  0  0
   -2.8605   -1.1856    7.4358 C   0  0  0  0  0  4           0  0  0
   -2.3388    1.1781    6.0681 C   0  0  0  0  0  4           0  0  0
   -0.1801   -0.0118    3.8002 C   0  0  0  0  0  4           0  0  0
   -2.4272   -0.0384    2.9290 C   0  0  0  0  0  4           0  0  0
    0.3251    0.0000    2.4971 C   0  0  0  0  0  4           0  0  0
   -1.9221   -0.0261    1.6260 C   0  0  0  0  0  4           0  0  0
   -3.0826    0.0371    8.0624 C   0  0  0  0  0  4           0  0  0
   -2.8224    1.2185    7.3786 C   0  0  0  0  0  4           0  0  0
   -0.8687   -4.1580    7.1388 C   0  0  2  0  0  4           0  0  0
    1.7716    2.5121   -0.0456 C   0  0  0  0  0  4           0  0  0
    0.0000    0.0000   -0.0000 C   0  0  0  0  0  4           0  0  0
    1.7869   -2.5212    0.0145 C   0  0  0  0  0  4           0  0  0
    1.5851   -3.0797   -1.3912 C   0  0  0  0  0  4           0  0  0
    1.0886   -4.5256   -1.4255 C   0  0  0  0  0  4           0  0  0
    0.8969   -5.0545   -2.8390 C   0  0  0  0  0  4           0  0  0
  1 12  1  0     0  0
  2  6  2  0     0  0
  2  7  2  0     0  0
  2 11  1  0     0  0
  2 27  1  0     0  0
  3 27  1  0     0  0
  4 27  1  0     0  0
  5 27  1  0     0  0
  8 28  1  0     0  0
  9 13  1  0     0  0
  9 14  1  0     0  0
  9 29  1  0     0  0
 10 12  1  0     0  0
 10 13  2  0     0  0
 11 15  1  0     0  0
 12 14  2  0     0  0
 13 30  1  0     0  0
 14 28  1  0     0  0
 15 16  1  0     0  0
 15 19  2  0     0  0
 16 17  1  0     0  0
 16 20  2  0     0  0
 17 21  2  0     0  0
 17 22  1  0     0  0
 18 23  2  0     0  0
 18 24  1  0     0  0
 18 29  1  0     0  0
 19 25  1  0     0  0
 20 26  1  0     0  0
 21 23  1  0     0  0
 22 24  2  0     0  0
 25 26  2  0     0  0
 30 31  1  0     0  0
 31 32  1  0     0  0
 32 33  1  0     0  0
M  END
> <standard_type>
pIC50

> <# Confs.>
25

> <canonical_smiles>
ClC(N=C1CCCC)=C(CO)N1CC2=CC=C(C3=CC=CC=C3NS(=O)(C(F)(F)F)=O)C=C2

> <standard_relation>
=

> <Publication_ID>
nan

> <predicted_activity_value>
7.022276394711152

> <actual_activity_value>
7.080921907623926

> <Compound>
7

> <standard_units>
nM

> hash
11133345014010873493

$$$$
6
XXILIB    08252103503D 0   0.00000     0.00000

 33 35  0     1  0            999 V2000
    5.0019    1.4987   -0.0650 Cl  0  0  0  0  0  1           0  0  0
   -3.2943    3.1848    4.6776 S   0  0  1  0  0  6           0  0  0
   -4.8225    3.1985    6.7764 F   0  0  0  0  0  1           0  0  0
   -5.1508    4.8433    5.3832 F   0  0  0  0  0  1           0  0  0
   -3.3925    4.8450    6.6735 F   0  0  0  0  0  1           0  0  0
   -2.6732    4.1904    3.8367 O   0  0  0  0  0  2           0  0  0
   -4.1708    2.1796    4.1086 O   0  0  0  0  0  2           0  0  0
    1.6114    2.9030   -1.4027 O   0  0  0  0  0  2           0  0  0
    1.4522    0.0000    0.0000 N   0  0  0  0  0  3           0  0  0
    3.5396   -0.7595   -0.0143 N   0  0  0  0  0  3           0  0  0
   -2.0644    2.4378    5.6292 N   0  0  0  0  0  3           0  0  0
    3.5478    0.6103   -0.0330 C   0  0  0  0  0  4           0  0  0
    2.2701   -1.1133    0.0000 C   0  0  0  0  0  4           0  0  0
    2.2624    1.1179   -0.0275 C   0  0  0  0  0  4           0  0  0
   -2.3907    1.1309    6.1365 C   0  0  0  0  0  4           0  0  0
   -2.0954   -0.0431    5.4059 C   0  0  0  0  0  4           0  0  0
   -1.5631   -0.0295    4.0341 C   0  0  0  0  0  4           0  0  0
   -0.5411    0.0000    1.3972 C   0  0  0  0  0  4           0  0  0
   -2.9073    1.0594    7.4397 C   0  0  0  0  0  4           0  0  0
   -2.3542   -1.2769    6.0379 C   0  0  0  0  0  4           0  0  0
   -0.1801   -0.0118    3.8002 C   0  0  0  0  0  4           0  0  0
   -2.4272   -0.0384    2.9290 C   0  0  0  0  0  4           0  0  0
    0.3251   -0.0000    2.4971 C   0  0  0  0  0  4           0  0  0
   -1.9221   -0.0261    1.6260 C   0  0  0  0  0  4           0  0  0
   -3.1578   -0.1753    8.0311 C   0  0  0  0  0  4           0  0  0
   -2.8809   -1.3430    7.3307 C   0  0  0  0  0  4           0  0  0
   -4.1972    4.0497    5.9280 C   0  0  2  0  0  4           0  0  0
    1.7716    2.5121   -0.0456 C   0  0  0  0  0  4           0  0  0
    0.0000    0.0000    0.0000 C   0  0  0  0  0  4           0  0  0
    1.7869   -2.5212    0.0145 C   0  0  0  0  0  4           0  0  0
    1.5851   -3.0797   -1.3912 C   0  0  0  0  0  4           0  0  0
    2.8517   -3.0929   -2.2478 C   0  0  0  0  0  4           0  0  0
    2.6199   -3.6545   -3.6425 C   0  0  0  0  0  4           0  0  0
  1 12  1  0     0  0
  2  6  2  0     0  0
  2  7  2  0     0  0
  2 11  1  0     0  0
  2 27  1  0     0  0
  3 27  1  0     0  0
  4 27  1  0     0  0
  5 27  1  0     0  0
  8 28  1  0     0  0
  9 13  1  0     0  0
  9 14  1  0     0  0
  9 29  1  0     0  0
 10 12  1  0     0  0
 10 13  2  0     0  0
 11 15  1  0     0  0
 12 14  2  0     0  0
 13 30  1  0     0  0
 14 28  1  0     0  0
 15 16  1  0     0  0
 15 19  2  0     0  0
 16 17  1  0     0  0
 16 20  2  0     0  0
 17 21  2  0     0  0
 17 22  1  0     0  0
 18 23  2  0     0  0
 18 24  1  0     0  0
 18 29  1  0     0  0
 19 25  1  0     0  0
 20 26  1  0     0  0
 21 23  1  0     0  0
 22 24  2  0     0  0
 25 26  2  0     0  0
 30 31  1  0     0  0
 31 32  1  0     0  0
 32 33  1  0     0  0
M  END
> <standard_type>
pIC50

> <# Confs.>
25

> <canonical_smiles>
ClC(N=C1CCCC)=C(CO)N1CC2=CC=C(C3=CC=CC=C3NS(=O)(C(F)(F)F)=O)C=C2

> <standard_relation>
=

> <Publication_ID>
nan

> <predicted_activity_value>
7.022276394711152

> <actual_activity_value>
7.080921907623926

> <Compound>
7

> <standard_units>
nM

> hash
11133345014010873493

$$$$
6
XXILIB    08252103503D 0   0.00000     0.00000

 33 35  0     1  0            999 V2000
    5.0019    1.4987   -0.0650 Cl  0  0  0  0  0  1           0  0  0
   -3.6952   -3.1114    4.7631 S   0  0  1  0  0  6           0  0  0
   -3.7143   -5.0622    6.4763 F   0  0  0  0  0  1           0  0  0
   -5.6807   -4.4073    5.7991 F   0  0  0  0  0  1           0  0  0
   -4.5552   -3.1871    7.2136 F   0  0  0  0  0  1           0  0  0
   -4.5494   -1.9763    4.4699 O   0  0  0  0  0  2           0  0  0
   -3.3740   -4.0835    3.7365 O   0  0  0  0  0  2           0  0  0
    1.6114    2.9030   -1.4027 O   0  0  0  0  0  2           0  0  0
    1.4522    0.0000    0.0000 N   0  0  0  0  0  3           0  0  0
    3.5396   -0.7595   -0.0143 N   0  0  0  0  0  3           0  0  0
   -2.2525   -2.5272    5.5073 N   0  0  0  0  0  3           0  0  0
    3.5478    0.6103   -0.0330 C   0  0  0  0  0  4           0  0  0
    2.2701   -1.1133    0.0000 C   0  0  0  0  0  4           0  0  0
    2.2624    1.1179   -0.0275 C   0  0  0  0  0  4           0  0  0
   -2.3624   -1.2313    6.1242 C   0  0  0  0  0  4           0  0  0
   -2.0954   -0.0431    5.4059 C   0  0  0  0  0  4           0  0  0
   -1.5631   -0.0295    4.0341 C   0  0  0  0  0  4           0  0  0
   -0.5411   -0.0000    1.3972 C   0  0  0  0  0  4           0  0  0
   -2.8605   -1.1856    7.4358 C   0  0  0  0  0  4           0  0  0
   -2.3388    1.1781    6.0681 C   0  0  0  0  0  4           0  0  0
   -0.1801   -0.0118    3.8002 C   0  0  0  0  0  4           0  0  0
   -2.4272   -0.0384    2.9290 C   0  0  0  0  0  4           0  0  0
    0.3251    0.0000    2.4971 C   0  0  0  0  0  4           0  0  0
   -1.9221   -0.0261    1.6260 C   0  0  0  0  0  4           0  0  0
   -3.0826    0.0371    8.0624 C   0  0  0  0  0  4           0  0  0
   -2.8224    1.2185    7.3786 C   0  0  0  0  0  4           0  0  0
   -4.4368   -3.9741    6.1169 C   0  0  2  0  0  4           0  0  0
    1.7716    2.5121   -0.0456 C   0  0  0  0  0  4           0  0  0
    0.0000    0.0000   -0.0000 C   0  0  0  0  0  4           0  0  0
    1.7869   -2.5212    0.0145 C   0  0  0  0  0  4           0  0  0
    1.6121   -3.0599    1.4316 C   0  0  0  0  0  4           0  0  0
    1.1166   -4.5050    1.4957 C   0  0  0  0  0  4           0  0  0
    0.9520   -5.0140    2.9198 C   0  0  0  0  0  4           0  0  0
  1 12  1  0     0  0
  2  6  2  0     0  0
  2  7  2  0     0  0
  2 11  1  0     0  0
  2 27  1  0     0  0
  3 27  1  0     0  0
  4 27  1  0     0  0
  5 27  1  0     0  0
  8 28  1  0     0  0
  9 13  1  0     0  0
  9 14  1  0     0  0
  9 29  1  0     0  0
 10 12  1  0     0  0
 10 13  2  0     0  0
 11 15  1  0     0  0
 12 14  2  0     0  0
 13 30  1  0     0  0
 14 28  1  0     0  0
 15 16  1  0     0  0
 15 19  2  0     0  0
 16 17  1  0     0  0
 16 20  2  0     0  0
 17 21  2  0     0  0
 17 22  1  0     0  0
 18 23  2  0     0  0
 18 24  1  0     0  0
 18 29  1  0     0  0
 19 25  1  0     0  0
 20 26  1  0     0  0
 21 23  1  0     0  0
 22 24  2  0     0  0
 25 26  2  0     0  0
 30 31  1  0     0  0
 31 32  1  0     0  0
 32 33  1  0     0  0
M  END
> <standard_type>
pIC50

> <# Confs.>
25

> <canonical_smiles>
ClC(N=C1CCCC)=C(CO)N1CC2=CC=C(C3=CC=CC=C3NS(=O)(C(F)(F)F)=O)C=C2

> <standard_relation>
=

> <Publication_ID>
nan

> <predicted_activity_value>
7.022276394711152

> <actual_activity_value>
7.080921907623926

> <Compound>
7

> <standard_units>
nM

> hash
11133345014010873493

$$$$
6
XXILIB    08252103503D 0   0.00000     0.00000

 33 35  0     1  0            999 V2000
    5.0019    1.4987   -0.0650 Cl  0  0  0  0  0  1           0  0  0
   -1.2480   -3.3568    5.7739 S   0  0  1  0  0  6           0  0  0
   -0.1755   -4.2887    7.9469 F   0  0  0  0  0  1           0  0  0
   -2.0036   -5.2942    7.3135 F   0  0  0  0  0  1           0  0  0
   -2.1100   -3.3154    8.2244 F   0  0  0  0  0  1           0  0  0
   -2.5974   -3.1919    5.2679 O   0  0  0  0  0  2           0  0  0
   -0.2609   -4.1094    5.0245 O   0  0  0  0  0  2           0  0  0
    1.6114    2.9030   -1.4027 O   0  0  0  0  0  2           0  0  0
    1.4522    0.0000    0.0000 N   0  0  0  0  0  3           0  0  0
    3.5396   -0.7595   -0.0143 N   0  0  0  0  0  3           0  0  0
   -0.6285   -1.8001    6.1853 N   0  0  0  0  0  3           0  0  0
    3.5478    0.6103   -0.0330 C   0  0  0  0  0  4           0  0  0
    2.2701   -1.1133    0.0000 C   0  0  0  0  0  4           0  0  0
    2.2624    1.1179   -0.0275 C   0  0  0  0  0  4           0  0  0
   -1.6238   -0.7902    6.4335 C   0  0  0  0  0  4           0  0  0
   -2.1210    0.0317    5.3960 C   0  0  0  0  0  4           0  0  0
   -1.5813    0.0215    4.0271 C   0  0  0  0  0  4           0  0  0
   -0.5411    0.0000    1.3972 C   0  0  0  0  0  4           0  0  0
   -2.1699   -0.7318    7.7253 C   0  0  0  0  0  4           0  0  0
   -3.1725    0.9135    5.7210 C   0  0  0  0  0  4           0  0  0
   -2.1052   -0.8434    3.0547 C   0  0  0  0  0  4           0  0  0
   -0.5333    0.8797    3.6624 C   0  0  0  0  0  4           0  0  0
   -1.5930   -0.8520    1.7543 C   0  0  0  0  0  4           0  0  0
   -0.0207    0.8706    2.3623 C   0  0  0  0  0  4           0  0  0
   -3.2026    0.1554    8.0137 C   0  0  0  0  0  4           0  0  0
   -3.7041    0.9774    7.0119 C   0  0  0  0  0  4           0  0  0
   -1.3883   -4.0887    7.3775 C   0  0  2  0  0  4           0  0  0
    1.7716    2.5121   -0.0456 C   0  0  0  0  0  4           0  0  0
    0.0000    0.0000   -0.0000 C   0  0  0  0  0  4           0  0  0
    1.7869   -2.5212    0.0145 C   0  0  0  0  0  4           0  0  0
    2.5522   -3.3868    1.0114 C   0  0  0  0  0  4           0  0  0
    2.4551   -2.9082    2.4605 C   0  0  0  0  0  4           0  0  0
    3.2272   -3.7899    3.4304 C   0  0  0  0  0  4           0  0  0
  1 12  1  0     0  0
  2  6  2  0     0  0
  2  7  2  0     0  0
  2 11  1  0     0  0
  2 27  1  0     0  0
  3 27  1  0     0  0
  4 27  1  0     0  0
  5 27  1  0     0  0
  8 28  1  0     0  0
  9 13  1  0     0  0
  9 14  1  0     0  0
  9 29  1  0     0  0
 10 12  1  0     0  0
 10 13  2  0     0  0
 11 15  1  0     0  0
 12 14  2  0     0  0
 13 30  1  0     0  0
 14 28  1  0     0  0
 15 16  1  0     0  0
 15 19  2  0     0  0
 16 17  1  0     0  0
 16 20  2  0     0  0
 17 21  2  0     0  0
 17 22  1  0     0  0
 18 23  2  0     0  0
 18 24  1  0     0  0
 18 29  1  0     0  0
 19 25  1  0     0  0
 20 26  1  0     0  0
 21 23  1  0     0  0
 22 24  2  0     0  0
 25 26  2  0     0  0
 30 31  1  0     0  0
 31 32  1  0     0  0
 32 33  1  0     0  0
M  END
> <standard_type>
pIC50

> <# Confs.>
25

> <canonical_smiles>
ClC(N=C1CCCC)=C(CO)N1CC2=CC=C(C3=CC=CC=C3NS(=O)(C(F)(F)F)=O)C=C2

> <standard_relation>
=

> <Publication_ID>
nan

> <predicted_activity_value>
7.022276394711152

> <actual_activity_value>
7.080921907623926

> <Compound>
7

> <standard_units>
nM

> hash
11133345014010873493

$$$$
6
XXILIB    08252103503D 0   0.00000     0.00000

 33 35  0     1  0            999 V2000
    5.0019    1.4987   -0.0650 Cl  0  0  0  0  0  1           0  0  0
   -0.5013    3.0251    6.0630 S   0  0  1  0  0  6           0  0  0
   -1.6556    4.9461    7.3737 F   0  0  0  0  0  1           0  0  0
    0.2572    4.2899    8.1891 F   0  0  0  0  0  1           0  0  0
   -1.5196    3.0532    8.4530 F   0  0  0  0  0  1           0  0  0
    0.3347    1.8895    6.4034 O   0  0  0  0  0  2           0  0  0
   -0.0524    4.0168    5.1052 O   0  0  0  0  0  2           0  0  0
    1.6114    2.9030   -1.4027 O   0  0  0  0  0  2           0  0  0
    1.4522    0.0000    0.0000 N   0  0  0  0  0  3           0  0  0
    3.5396   -0.7595   -0.0143 N   0  0  0  0  0  3           0  0  0
   -2.0644    2.4378    5.6292 N   0  0  0  0  0  3           0  0  0
    3.5478    0.6103   -0.0330 C   0  0  0  0  0  4           0  0  0
    2.2701   -1.1133    0.0000 C   0  0  0  0  0  4           0  0  0
    2.2624    1.1179   -0.0275 C   0  0  0  0  0  4           0  0  0
   -2.3907    1.1309    6.1365 C   0  0  0  0  0  4           0  0  0
   -2.0954   -0.0431    5.4059 C   0  0  0  0  0  4           0  0  0
   -1.5631   -0.0295    4.0341 C   0  0  0  0  0  4           0  0  0
   -0.5411    0.0000    1.3972 C   0  0  0  0  0  4           0  0  0
   -2.9073    1.0594    7.4397 C   0  0  0  0  0  4           0  0  0
   -2.3542   -1.2769    6.0379 C   0  0  0  0  0  4           0  0  0
   -0.1801   -0.0118    3.8002 C   0  0  0  0  0  4           0  0  0
   -2.4272   -0.0384    2.9290 C   0  0  0  0  0  4           0  0  0
    0.3251   -0.0000    2.4971 C   0  0  0  0  0  4           0  0  0
   -1.9221   -0.0261    1.6260 C   0  0  0  0  0  4           0  0  0
   -3.1578   -0.1753    8.0311 C   0  0  0  0  0  4           0  0  0
   -2.8809   -1.3430    7.3307 C   0  0  0  0  0  4           0  0  0
   -0.8725    3.8596    7.5772 C   0  0  2  0  0  4           0  0  0
    1.7716    2.5121   -0.0456 C   0  0  0  0  0  4           0  0  0
    0.0000    0.0000    0.0000 C   0  0  0  0  0  4           0  0  0
    1.7869   -2.5212    0.0145 C   0  0  0  0  0  4           0  0  0
    2.9337   -3.5280    0.0106 C   0  0  0  0  0  4           0  0  0
    2.4841   -4.9895    0.0252 C   0  0  0  0  0  4           0  0  0
    3.6480   -5.9691    0.0209 C   0  0  0  0  0  4           0  0  0
  1 12  1  0     0  0
  2  6  2  0     0  0
  2  7  2  0     0  0
  2 11  1  0     0  0
  2 27  1  0     0  0
  3 27  1  0     0  0
  4 27  1  0     0  0
  5 27  1  0     0  0
  8 28  1  0     0  0
  9 13  1  0     0  0
  9 14  1  0     0  0
  9 29  1  0     0  0
 10 12  1  0     0  0
 10 13  2  0     0  0
 11 15  1  0     0  0
 12 14  2  0     0  0
 13 30  1  0     0  0
 14 28  1  0     0  0
 15 16  1  0     0  0
 15 19  2  0     0  0
 16 17  1  0     0  0
 16 20  2  0     0  0
 17 21  2  0     0  0
 17 22  1  0     0  0
 18 23  2  0     0  0
 18 24  1  0     0  0
 18 29  1  0     0  0
 19 25  1  0     0  0
 20 26  1  0     0  0
 21 23  1  0     0  0
 22 24  2  0     0  0
 25 26  2  0     0  0
 30 31  1  0     0  0
 31 32  1  0     0  0
 32 33  1  0     0  0
M  END
> <standard_type>
pIC50

> <# Confs.>
25

> <canonical_smiles>
ClC(N=C1CCCC)=C(CO)N1CC2=CC=C(C3=CC=CC=C3NS(=O)(C(F)(F)F)=O)C=C2

> <standard_relation>
=

> <Publication_ID>
nan

> <predicted_activity_value>
7.022276394711152

> <actual_activity_value>
7.080921907623926

> <Compound>
7

> <standard_units>
nM

> hash
11133345014010873493

$$$$
6
XXILIB    08252103503D 0   0.00000     0.00000

 33 35  0     1  0            999 V2000
    5.0019    1.4987   -0.0650 Cl  0  0  0  0  0  1           0  0  0
   -0.5013    3.0251    6.0630 S   0  0  1  0  0  6           0  0  0
   -1.6556    4.9461    7.3737 F   0  0  0  0  0  1           0  0  0
    0.2572    4.2899    8.1891 F   0  0  0  0  0  1           0  0  0
   -1.5196    3.0532    8.4530 F   0  0  0  0  0  1           0  0  0
    0.3347    1.8895    6.4034 O   0  0  0  0  0  2           0  0  0
   -0.0524    4.0168    5.1052 O   0  0  0  0  0  2           0  0  0
    1.6114    2.9030   -1.4027 O   0  0  0  0  0  2           0  0  0
    1.4522    0.0000    0.0000 N   0  0  0  0  0  3           0  0  0
    3.5396   -0.7595   -0.0143 N   0  0  0  0  0  3           0  0  0
   -2.0644    2.4378    5.6292 N   0  0  0  0  0  3           0  0  0
    3.5478    0.6103   -0.0330 C   0  0  0  0  0  4           0  0  0
    2.2701   -1.1133    0.0000 C   0  0  0  0  0  4           0  0  0
    2.2624    1.1179   -0.0275 C   0  0  0  0  0  4           0  0  0
   -2.3907    1.1309    6.1365 C   0  0  0  0  0  4           0  0  0
   -2.0954   -0.0431    5.4059 C   0  0  0  0  0  4           0  0  0
   -1.5631   -0.0295    4.0341 C   0  0  0  0  0  4           0  0  0
   -0.5411    0.0000    1.3972 C   0  0  0  0  0  4           0  0  0
   -2.9073    1.0594    7.4397 C   0  0  0  0  0  4           0  0  0
   -2.3542   -1.2769    6.0379 C   0  0  0  0  0  4           0  0  0
   -0.1801   -0.0118    3.8002 C   0  0  0  0  0  4           0  0  0
   -2.4272   -0.0384    2.9290 C   0  0  0  0  0  4           0  0  0
    0.3251   -0.0000    2.4971 C   0  0  0  0  0  4           0  0  0
   -1.9221   -0.0261    1.6260 C   0  0  0  0  0  4           0  0  0
   -3.1578   -0.1753    8.0311 C   0  0  0  0  0  4           0  0  0
   -2.8809   -1.3430    7.3307 C   0  0  0  0  0  4           0  0  0
   -0.8725    3.8596    7.5772 C   0  0  2  0  0  4           0  0  0
    1.7716    2.5121   -0.0456 C   0  0  0  0  0  4           0  0  0
    0.0000    0.0000    0.0000 C   0  0  0  0  0  4           0  0  0
    1.7869   -2.5212    0.0145 C   0  0  0  0  0  4           0  0  0
    2.5522   -3.3868    1.0114 C   0  0  0  0  0  4           0  0  0
    2.4551   -2.9082    2.4605 C   0  0  0  0  0  4           0  0  0
    3.2272   -3.7899    3.4304 C   0  0  0  0  0  4           0  0  0
  1 12  1  0     0  0
  2  6  2  0     0  0
  2  7  2  0     0  0
  2 11  1  0     0  0
  2 27  1  0     0  0
  3 27  1  0     0  0
  4 27  1  0     0  0
  5 27  1  0     0  0
  8 28  1  0     0  0
  9 13  1  0     0  0
  9 14  1  0     0  0
  9 29  1  0     0  0
 10 12  1  0     0  0
 10 13  2  0     0  0
 11 15  1  0     0  0
 12 14  2  0     0  0
 13 30  1  0     0  0
 14 28  1  0     0  0
 15 16  1  0     0  0
 15 19  2  0     0  0
 16 17  1  0     0  0
 16 20  2  0     0  0
 17 21  2  0     0  0
 17 22  1  0     0  0
 18 23  2  0     0  0
 18 24  1  0     0  0
 18 29  1  0     0  0
 19 25  1  0     0  0
 20 26  1  0     0  0
 21 23  1  0     0  0
 22 24  2  0     0  0
 25 26  2  0     0  0
 30 31  1  0     0  0
 31 32  1  0     0  0
 32 33  1  0     0  0
M  END
> <standard_type>
pIC50

> <# Confs.>
25

> <canonical_smiles>
ClC(N=C1CCCC)=C(CO)N1CC2=CC=C(C3=CC=CC=C3NS(=O)(C(F)(F)F)=O)C=C2

> <standard_relation>
=

> <Publication_ID>
nan

> <predicted_activity_value>
7.022276394711152

> <actual_activity_value>
7.080921907623926

> <Compound>
7

> <standard_units>
nM

> hash
11133345014010873493

$$$$
6
XXILIB    08252103503D 0   0.00000     0.00000

 33 35  0     1  0            999 V2000
    5.0019    1.4987   -0.0650 Cl  0  0  0  0  0  1           0  0  0
   -2.0481   -3.5622    5.3979 S   0  0  1  0  0  6           0  0  0
   -1.2418   -4.9527    7.4368 F   0  0  0  0  0  1           0  0  0
   -3.2505   -5.4247    6.7322 F   0  0  0  0  0  1           0  0  0
   -2.8947   -3.5887    7.8540 F   0  0  0  0  0  1           0  0  0
   -3.3169   -3.0305    4.9379 O   0  0  0  0  0  2           0  0  0
   -1.2605   -4.4388    4.5531 O   0  0  0  0  0  2           0  0  0
    1.6114    2.9030   -1.4027 O   0  0  0  0  0  2           0  0  0
    1.4522    0.0000    0.0000 N   0  0  0  0  0  3           0  0  0
    3.5396   -0.7595   -0.0143 N   0  0  0  0  0  3           0  0  0
   -1.0825   -2.2494    5.9641 N   0  0  0  0  0  3           0  0  0
    3.5478    0.6103   -0.0330 C   0  0  0  0  0  4           0  0  0
    2.2701   -1.1133    0.0000 C   0  0  0  0  0  4           0  0  0
    2.2624    1.1179   -0.0275 C   0  0  0  0  0  4           0  0  0
   -1.8138   -1.0675    6.3387 C   0  0  0  0  0  4           0  0  0
   -2.0954   -0.0431    5.4059 C   0  0  0  0  0  4           0  0  0
   -1.5631   -0.0295    4.0341 C   0  0  0  0  0  4           0  0  0
   -0.5411   -0.0000    1.3972 C   0  0  0  0  0  4           0  0  0
   -2.3404   -1.0246    7.6392 C   0  0  0  0  0  4           0  0  0
   -2.9121    1.0199    5.8440 C   0  0  0  0  0  4           0  0  0
   -0.1801   -0.0118    3.8002 C   0  0  0  0  0  4           0  0  0
   -2.4272   -0.0384    2.9290 C   0  0  0  0  0  4           0  0  0
    0.3251    0.0000    2.4971 C   0  0  0  0  0  4           0  0  0
   -1.9221   -0.0261    1.6260 C   0  0  0  0  0  4           0  0  0
   -3.1372    0.0433    8.0412 C   0  0  0  0  0  4           0  0  0
   -3.4234    1.0649    7.1439 C   0  0  0  0  0  4           0  0  0
   -2.3690   -4.4121    6.9150 C   0  0  2  0  0  4           0  0  0
    1.7716    2.5121   -0.0456 C   0  0  0  0  0  4           0  0  0
    0.0000    0.0000   -0.0000 C   0  0  0  0  0  4           0  0  0
    1.7869   -2.5212    0.0145 C   0  0  0  0  0  4           0  0  0
    1.5851   -3.0797   -1.3912 C   0  0  0  0  0  4           0  0  0
    2.8517   -3.0929   -2.2478 C   0  0  0  0  0  4           0  0  0
    2.6199   -3.6545   -3.6425 C   0  0  0  0  0  4           0  0  0
  1 12  1  0     0  0
  2  6  2  0     0  0
  2  7  2  0     0  0
  2 11  1  0     0  0
  2 27  1  0     0  0
  3 27  1  0     0  0
  4 27  1  0     0  0
  5 27  1  0     0  0
  8 28  1  0     0  0
  9 13  1  0     0  0
  9 14  1  0     0  0
  9 29  1  0     0  0
 10 12  1  0     0  0
 10 13  2  0     0  0
 11 15  1  0     0  0
 12 14  2  0     0  0
 13 30  1  0     0  0
 14 28  1  0     0  0
 15 16  1  0     0  0
 15 19  2  0     0  0
 16 17  1  0     0  0
 16 20  2  0     0  0
 17 21  2  0     0  0
 17 22  1  0     0  0
 18 23  2  0     0  0
 18 24  1  0     0  0
 18 29  1  0     0  0
 19 25  1  0     0  0
 20 26  1  0     0  0
 21 23  1  0     0  0
 22 24  2  0     0  0
 25 26  2  0     0  0
 30 31  1  0     0  0
 31 32  1  0     0  0
 32 33  1  0     0  0
M  END
> <standard_type>
pIC50

> <# Confs.>
25

> <canonical_smiles>
ClC(N=C1CCCC)=C(CO)N1CC2=CC=C(C3=CC=CC=C3NS(=O)(C(F)(F)F)=O)C=C2

> <standard_relation>
=

> <Publication_ID>
nan

> <predicted_activity_value>
7.022276394711152

> <actual_activity_value>
7.080921907623926

> <Compound>
7

> <standard_units>
nM

> hash
11133345014010873493

$$$$
6
XXILIB    08252103503D 0   0.00000     0.00000

 33 35  0     1  0            999 V2000
    5.0019    1.4987   -0.0650 Cl  0  0  0  0  0  1           0  0  0
   -0.6977   -3.2659    5.6217 S   0  0  1  0  0  6           0  0  0
   -0.9850   -3.3257    8.2013 F   0  0  0  0  0  1           0  0  0
    0.2079   -4.9485    7.3663 F   0  0  0  0  0  1           0  0  0
   -1.9604   -4.9607    7.1327 F   0  0  0  0  0  1           0  0  0
   -0.5824   -4.2528    4.5648 O   0  0  0  0  0  2           0  0  0
    0.3264   -2.2569    5.8101 O   0  0  0  0  0  2           0  0  0
    1.6114    2.9030   -1.4027 O   0  0  0  0  0  2           0  0  0
    1.4522    0.0000    0.0000 N   0  0  0  0  0  3           0  0  0
    3.5396   -0.7595   -0.0143 N   0  0  0  0  0  3           0  0  0
   -2.2525   -2.5272    5.5073 N   0  0  0  0  0  3           0  0  0
    3.5478    0.6103   -0.0330 C   0  0  0  0  0  4           0  0  0
    2.2701   -1.1133    0.0000 C   0  0  0  0  0  4           0  0  0
    2.2624    1.1179   -0.0275 C   0  0  0  0  0  4           0  0  0
   -2.3624   -1.2313    6.1242 C   0  0  0  0  0  4           0  0  0
   -2.0954   -0.0431    5.4059 C   0  0  0  0  0  4           0  0  0
   -1.5631   -0.0295    4.0341 C   0  0  0  0  0  4           0  0  0
   -0.5411   -0.0000    1.3972 C   0  0  0  0  0  4           0  0  0
   -2.8605   -1.1856    7.4358 C   0  0  0  0  0  4           0  0  0
   -2.3388    1.1781    6.0681 C   0  0  0  0  0  4           0  0  0
   -0.1801   -0.0118    3.8002 C   0  0  0  0  0  4           0  0  0
   -2.4272   -0.0384    2.9290 C   0  0  0  0  0  4           0  0  0
    0.3251    0.0000    2.4971 C   0  0  0  0  0  4           0  0  0
   -1.9221   -0.0261    1.6260 C   0  0  0  0  0  4           0  0  0
   -3.0826    0.0371    8.0624 C   0  0  0  0  0  4           0  0  0
   -2.8224    1.2185    7.3786 C   0  0  0  0  0  4           0  0  0
   -0.8687   -4.1580    7.1388 C   0  0  2  0  0  4           0  0  0
    1.7716    2.5121   -0.0456 C   0  0  0  0  0  4           0  0  0
    0.0000    0.0000   -0.0000 C   0  0  0  0  0  4           0  0  0
    1.7869   -2.5212    0.0145 C   0  0  0  0  0  4           0  0  0
    1.5851   -3.0797   -1.3912 C   0  0  0  0  0  4           0  0  0
    2.8517   -3.0929   -2.2478 C   0  0  0  0  0  4           0  0  0
    2.6199   -3.6545   -3.6425 C   0  0  0  0  0  4           0  0  0
  1 12  1  0     0  0
  2  6  2  0     0  0
  2  7  2  0     0  0
  2 11  1  0     0  0
  2 27  1  0     0  0
  3 27  1  0     0  0
  4 27  1  0     0  0
  5 27  1  0     0  0
  8 28  1  0     0  0
  9 13  1  0     0  0
  9 14  1  0     0  0
  9 29  1  0     0  0
 10 12  1  0     0  0
 10 13  2  0     0  0
 11 15  1  0     0  0
 12 14  2  0     0  0
 13 30  1  0     0  0
 14 28  1  0     0  0
 15 16  1  0     0  0
 15 19  2  0     0  0
 16 17  1  0     0  0
 16 20  2  0     0  0
 17 21  2  0     0  0
 17 22  1  0     0  0
 18 23  2  0     0  0
 18 24  1  0     0  0
 18 29  1  0     0  0
 19 25  1  0     0  0
 20 26  1  0     0  0
 21 23  1  0     0  0
 22 24  2  0     0  0
 25 26  2  0     0  0
 30 31  1  0     0  0
 31 32  1  0     0  0
 32 33  1  0     0  0
M  END
> <standard_type>
pIC50

> <# Confs.>
25

> <canonical_smiles>
ClC(N=C1CCCC)=C(CO)N1CC2=CC=C(C3=CC=CC=C3NS(=O)(C(F)(F)F)=O)C=C2

> <standard_relation>
=

> <Publication_ID>
nan

> <predicted_activity_value>
7.022276394711152

> <actual_activity_value>
7.080921907623926

> <Compound>
7

> <standard_units>
nM

> hash
11133345014010873493

$$$$
6
XXILIB    08252103503D 0   0.00000     0.00000

 33 35  0     1  0            999 V2000
    5.0019    1.4987   -0.0650 Cl  0  0  0  0  0  1           0  0  0
   -3.2943    3.1848    4.6776 S   0  0  1  0  0  6           0  0  0
   -4.8225    3.1985    6.7764 F   0  0  0  0  0  1           0  0  0
   -5.1508    4.8433    5.3832 F   0  0  0  0  0  1           0  0  0
   -3.3925    4.8450    6.6735 F   0  0  0  0  0  1           0  0  0
   -2.6732    4.1904    3.8367 O   0  0  0  0  0  2           0  0  0
   -4.1708    2.1796    4.1086 O   0  0  0  0  0  2           0  0  0
    1.6114    2.9030   -1.4027 O   0  0  0  0  0  2           0  0  0
    1.4522    0.0000    0.0000 N   0  0  0  0  0  3           0  0  0
    3.5396   -0.7595   -0.0143 N   0  0  0  0  0  3           0  0  0
   -2.0644    2.4378    5.6292 N   0  0  0  0  0  3           0  0  0
    3.5478    0.6103   -0.0330 C   0  0  0  0  0  4           0  0  0
    2.2701   -1.1133    0.0000 C   0  0  0  0  0  4           0  0  0
    2.2624    1.1179   -0.0275 C   0  0  0  0  0  4           0  0  0
   -2.3907    1.1309    6.1365 C   0  0  0  0  0  4           0  0  0
   -2.0954   -0.0431    5.4059 C   0  0  0  0  0  4           0  0  0
   -1.5631   -0.0295    4.0341 C   0  0  0  0  0  4           0  0  0
   -0.5411    0.0000    1.3972 C   0  0  0  0  0  4           0  0  0
   -2.9073    1.0594    7.4397 C   0  0  0  0  0  4           0  0  0
   -2.3542   -1.2769    6.0379 C   0  0  0  0  0  4           0  0  0
   -0.1801   -0.0118    3.8002 C   0  0  0  0  0  4           0  0  0
   -2.4272   -0.0384    2.9290 C   0  0  0  0  0  4           0  0  0
    0.3251   -0.0000    2.4971 C   0  0  0  0  0  4           0  0  0
   -1.9221   -0.0261    1.6260 C   0  0  0  0  0  4           0  0  0
   -3.1578   -0.1753    8.0311 C   0  0  0  0  0  4           0  0  0
   -2.8809   -1.3430    7.3307 C   0  0  0  0  0  4           0  0  0
   -4.1972    4.0497    5.9280 C   0  0  2  0  0  4           0  0  0
    1.7716    2.5121   -0.0456 C   0  0  0  0  0  4           0  0  0
    0.0000    0.0000    0.0000 C   0  0  0  0  0  4           0  0  0
    1.7869   -2.5212    0.0145 C   0  0  0  0  0  4           0  0  0
    2.9337   -3.5280    0.0106 C   0  0  0  0  0  4           0  0  0
    2.4841   -4.9895    0.0252 C   0  0  0  0  0  4           0  0  0
    3.6480   -5.9691    0.0209 C   0  0  0  0  0  4           0  0  0
  1 12  1  0     0  0
  2  6  2  0     0  0
  2  7  2  0     0  0
  2 11  1  0     0  0
  2 27  1  0     0  0
  3 27  1  0     0  0
  4 27  1  0     0  0
  5 27  1  0     0  0
  8 28  1  0     0  0
  9 13  1  0     0  0
  9 14  1  0     0  0
  9 29  1  0     0  0
 10 12  1  0     0  0
 10 13  2  0     0  0
 11 15  1  0     0  0
 12 14  2  0     0  0
 13 30  1  0     0  0
 14 28  1  0     0  0
 15 16  1  0     0  0
 15 19  2  0     0  0
 16 17  1  0     0  0
 16 20  2  0     0  0
 17 21  2  0     0  0
 17 22  1  0     0  0
 18 23  2  0     0  0
 18 24  1  0     0  0
 18 29  1  0     0  0
 19 25  1  0     0  0
 20 26  1  0     0  0
 21 23  1  0     0  0
 22 24  2  0     0  0
 25 26  2  0     0  0
 30 31  1  0     0  0
 31 32  1  0     0  0
 32 33  1  0     0  0
M  END
> <standard_type>
pIC50

> <# Confs.>
25

> <canonical_smiles>
ClC(N=C1CCCC)=C(CO)N1CC2=CC=C(C3=CC=CC=C3NS(=O)(C(F)(F)F)=O)C=C2

> <standard_relation>
=

> <Publication_ID>
nan

> <predicted_activity_value>
7.022276394711152

> <actual_activity_value>
7.080921907623926

> <Compound>
7

> <standard_units>
nM

> hash
11133345014010873493

$$$$
6
XXILIB    08252103503D 0   0.00000     0.00000

 33 35  0     1  0            999 V2000
    5.0019    1.4987   -0.0650 Cl  0  0  0  0  0  1           0  0  0
   -0.6977   -3.2659    5.6217 S   0  0  1  0  0  6           0  0  0
   -0.9850   -3.3257    8.2013 F   0  0  0  0  0  1           0  0  0
    0.2079   -4.9485    7.3663 F   0  0  0  0  0  1           0  0  0
   -1.9604   -4.9607    7.1327 F   0  0  0  0  0  1           0  0  0
   -0.5824   -4.2528    4.5648 O   0  0  0  0  0  2           0  0  0
    0.3264   -2.2569    5.8101 O   0  0  0  0  0  2           0  0  0
    1.6114    2.9030   -1.4027 O   0  0  0  0  0  2           0  0  0
    1.4522    0.0000    0.0000 N   0  0  0  0  0  3           0  0  0
    3.5396   -0.7595   -0.0143 N   0  0  0  0  0  3           0  0  0
   -2.2525   -2.5272    5.5073 N   0  0  0  0  0  3           0  0  0
    3.5478    0.6103   -0.0330 C   0  0  0  0  0  4           0  0  0
    2.2701   -1.1133    0.0000 C   0  0  0  0  0  4           0  0  0
    2.2624    1.1179   -0.0275 C   0  0  0  0  0  4           0  0  0
   -2.3624   -1.2313    6.1242 C   0  0  0  0  0  4           0  0  0
   -2.0954   -0.0431    5.4059 C   0  0  0  0  0  4           0  0  0
   -1.5631   -0.0295    4.0341 C   0  0  0  0  0  4           0  0  0
   -0.5411   -0.0000    1.3972 C   0  0  0  0  0  4           0  0  0
   -2.8605   -1.1856    7.4358 C   0  0  0  0  0  4           0  0  0
   -2.3388    1.1781    6.0681 C   0  0  0  0  0  4           0  0  0
   -0.1801   -0.0118    3.8002 C   0  0  0  0  0  4           0  0  0
   -2.4272   -0.0384    2.9290 C   0  0  0  0  0  4           0  0  0
    0.3251    0.0000    2.4971 C   0  0  0  0  0  4           0  0  0
   -1.9221   -0.0261    1.6260 C   0  0  0  0  0  4           0  0  0
   -3.0826    0.0371    8.0624 C   0  0  0  0  0  4           0  0  0
   -2.8224    1.2185    7.3786 C   0  0  0  0  0  4           0  0  0
   -0.8687   -4.1580    7.1388 C   0  0  2  0  0  4           0  0  0
    1.7716    2.5121   -0.0456 C   0  0  0  0  0  4           0  0  0
    0.0000    0.0000   -0.0000 C   0  0  0  0  0  4           0  0  0
    1.7869   -2.5212    0.0145 C   0  0  0  0  0  4           0  0  0
    2.5522   -3.3868    1.0114 C   0  0  0  0  0  4           0  0  0
    2.0894   -4.8434    1.0609 C   0  0  0  0  0  4           0  0  0
    2.8698   -5.6810    2.0627 C   0  0  0  0  0  4           0  0  0
  1 12  1  0     0  0
  2  6  2  0     0  0
  2  7  2  0     0  0
  2 11  1  0     0  0
  2 27  1  0     0  0
  3 27  1  0     0  0
  4 27  1  0     0  0
  5 27  1  0     0  0
  8 28  1  0     0  0
  9 13  1  0     0  0
  9 14  1  0     0  0
  9 29  1  0     0  0
 10 12  1  0     0  0
 10 13  2  0     0  0
 11 15  1  0     0  0
 12 14  2  0     0  0
 13 30  1  0     0  0
 14 28  1  0     0  0
 15 16  1  0     0  0
 15 19  2  0     0  0
 16 17  1  0     0  0
 16 20  2  0     0  0
 17 21  2  0     0  0
 17 22  1  0     0  0
 18 23  2  0     0  0
 18 24  1  0     0  0
 18 29  1  0     0  0
 19 25  1  0     0  0
 20 26  1  0     0  0
 21 23  1  0     0  0
 22 24  2  0     0  0
 25 26  2  0     0  0
 30 31  1  0     0  0
 31 32  1  0     0  0
 32 33  1  0     0  0
M  END
> <standard_type>
pIC50

> <# Confs.>
25

> <canonical_smiles>
ClC(N=C1CCCC)=C(CO)N1CC2=CC=C(C3=CC=CC=C3NS(=O)(C(F)(F)F)=O)C=C2

> <standard_relation>
=

> <Publication_ID>
nan

> <predicted_activity_value>
7.022276394711152

> <actual_activity_value>
7.080921907623926

> <Compound>
7

> <standard_units>
nM

> hash
11133345014010873493

$$$$
5
XXILIB    08252103503D 0   0.00000     0.00000

 28 30  0     1  0            999 V2000
    4.9767    1.5665   -0.1556 Cl  0  0  0  0  0  1           0  0  0
   -5.0983    0.0139    4.0109 O   0  0  0  0  0  2           0  0  0
   -4.4712   -2.1150    4.4765 O   0  0  0  0  0  2           0  0  0
    1.5326    2.9244   -1.3730 O   0  0  0  0  0  2           0  0  0
    1.4552    0.0000    0.0000 N   0  0  0  0  0  3           0  0  0
    3.5567   -0.7165   -0.0626 N   0  0  0  0  0  3           0  0  0
    3.5404    0.6520   -0.0830 C   0  0  0  0  0  4           0  0  0
    2.2952   -1.1045    0.0000 C   0  0  0  0  0  4           0  0  0
    2.2476    1.1344   -0.0369 C   0  0  0  0  0  4           0  0  0
   -2.1248   -0.0336    5.3906 C   0  0  0  0  0  4           0  0  0
   -1.5855   -0.0233    4.0248 C   0  0  0  0  0  4           0  0  0
   -3.4710   -0.3321    5.6973 C   0  0  0  0  0  4           0  0  0
   -0.5420    0.0000    1.3967 C   0  0  0  0  0  4           0  0  0
   -1.2764    0.2968    6.4670 C   0  0  0  0  0  4           0  0  0
   -2.1086    0.8424    3.0527 C   0  0  0  0  0  4           0  0  0
   -0.5360   -0.8803    3.6616 C   0  0  0  0  0  4           0  0  0
   -3.9395   -0.2933    7.0203 C   0  0  0  0  0  4           0  0  0
   -1.5945    0.8522    1.7530 C   0  0  0  0  0  4           0  0  0
   -0.0218   -0.8708    2.3619 C   0  0  0  0  0  4           0  0  0
   -1.7447    0.3369    7.7829 C   0  0  0  0  0  4           0  0  0
   -3.0759    0.0456    8.0583 C   0  0  0  0  0  4           0  0  0
   -4.4191   -0.7738    4.6537 C   0  0  0  0  0  4           0  0  0
    1.7359    2.5214   -0.0253 C   0  0  0  0  0  4           0  0  0
    0.0000    0.0000    0.0000 C   0  0  0  0  0  4           0  0  0
    1.7776   -2.4166    0.0687 C   0  0  0  0  0  4           0  0  0
    2.3786   -3.4835    0.6190 C   0  0  0  0  0  4           0  0  0
    3.6881   -3.5774    1.3392 C   0  0  0  0  0  4           0  0  0
    4.8306   -3.8755    0.3808 C   0  0  0  0  0  4           0  0  0
  1  7  1  0     0  0
  2 22  2  0     0  0
  3 22  1  0     0  0
  4 23  1  0     0  0
  5  8  1  0     0  0
  5  9  1  0     0  0
  5 24  1  0     0  0
  6  7  1  0     0  0
  6  8  2  0     0  0
  7  9  2  0     0  0
  8 25  1  0     0  0
  9 23  1  0     0  0
 10 11  1  0     0  0
 10 12  1  0     0  0
 10 14  2  0     0  0
 11 15  2  0     0  0
 11 16  1  0     0  0
 12 17  2  0     0  0
 12 22  1  0     0  0
 13 18  2  0     0  0
 13 19  1  0     0  0
 13 24  1  0     0  0
 14 20  1  0     0  0
 15 18  1  0     0  0
 16 19  2  0     0  0
 17 21  1  0     0  0
 20 21  2  0     0  0
 25 26  2  0     0  0
 26 27  1  0     0  0
 27 28  1  0     0  0
M  END
> <standard_type>
pIC50

> <# Confs.>
25

> <canonical_smiles>
ClC(N=C1/C=C/CC)=C(CO)N1CC2=CC=C(C3=CC=CC=C3C(O)=O)C=C2

> <standard_relation>
=

> <Publication_ID>
nan

> <predicted_activity_value>
7.0

> <actual_activity_value>
7.096910013008056

> <Compound>
6

> <standard_units>
nM

> hash
11452218105267670370

$$$$
5
XXILIB    08252103503D 0   0.00000     0.00000

 28 30  0     1  0            999 V2000
    4.9767    1.5665   -0.1556 Cl  0  0  0  0  0  1           0  0  0
   -2.4316    3.2277    5.2594 O   0  0  0  0  0  2           0  0  0
   -0.3444    2.6490    5.9307 O   0  0  0  0  0  2           0  0  0
    1.5326    2.9244   -1.3730 O   0  0  0  0  0  2           0  0  0
    1.4552    0.0000    0.0000 N   0  0  0  0  0  3           0  0  0
    3.5567   -0.7165   -0.0626 N   0  0  0  0  0  3           0  0  0
    3.5404    0.6520   -0.0830 C   0  0  0  0  0  4           0  0  0
    2.2952   -1.1045    0.0000 C   0  0  0  0  0  4           0  0  0
    2.2476    1.1344   -0.0369 C   0  0  0  0  0  4           0  0  0
   -2.1248   -0.0336    5.3906 C   0  0  0  0  0  4           0  0  0
   -1.5855   -0.0233    4.0248 C   0  0  0  0  0  4           0  0  0
   -2.1210    1.0943    6.2411 C   0  0  0  0  0  4           0  0  0
   -0.5420    0.0000    1.3967 C   0  0  0  0  0  4           0  0  0
   -2.6550   -1.2317    5.9112 C   0  0  0  0  0  4           0  0  0
   -2.1086    0.8424    3.0527 C   0  0  0  0  0  4           0  0  0
   -0.5360   -0.8803    3.6616 C   0  0  0  0  0  4           0  0  0
   -2.6200    1.0168    7.5511 C   0  0  0  0  0  4           0  0  0
   -1.5945    0.8522    1.7530 C   0  0  0  0  0  4           0  0  0
   -0.0218   -0.8708    2.3619 C   0  0  0  0  0  4           0  0  0
   -3.1495   -1.3077    7.2159 C   0  0  0  0  0  4           0  0  0
   -3.1284   -0.1851    8.0358 C   0  0  0  0  0  4           0  0  0
   -1.6678    2.4172    5.7641 C   0  0  0  0  0  4           0  0  0
    1.7359    2.5214   -0.0253 C   0  0  0  0  0  4           0  0  0
    0.0000    0.0000    0.0000 C   0  0  0  0  0  4           0  0  0
    1.7776   -2.4166    0.0687 C   0  0  0  0  0  4           0  0  0
    2.3786   -3.4835    0.6190 C   0  0  0  0  0  4           0  0  0
    3.6881   -3.5774    1.3392 C   0  0  0  0  0  4           0  0  0
    4.8306   -3.8755    0.3808 C   0  0  0  0  0  4           0  0  0
  1  7  1  0     0  0
  2 22  2  0     0  0
  3 22  1  0     0  0
  4 23  1  0     0  0
  5  8  1  0     0  0
  5  9  1  0     0  0
  5 24  1  0     0  0
  6  7  1  0     0  0
  6  8  2  0     0  0
  7  9  2  0     0  0
  8 25  1  0     0  0
  9 23  1  0     0  0
 10 11  1  0     0  0
 10 12  1  0     0  0
 10 14  2  0     0  0
 11 15  2  0     0  0
 11 16  1  0     0  0
 12 17  2  0     0  0
 12 22  1  0     0  0
 13 18  2  0     0  0
 13 19  1  0     0  0
 13 24  1  0     0  0
 14 20  1  0     0  0
 15 18  1  0     0  0
 16 19  2  0     0  0
 17 21  1  0     0  0
 20 21  2  0     0  0
 25 26  2  0     0  0
 26 27  1  0     0  0
 27 28  1  0     0  0
M  END
> <standard_type>
pIC50

> <# Confs.>
25

> <canonical_smiles>
ClC(N=C1/C=C/CC)=C(CO)N1CC2=CC=C(C3=CC=CC=C3C(O)=O)C=C2

> <standard_relation>
=

> <Publication_ID>
nan

> <predicted_activity_value>
7.0

> <actual_activity_value>
7.096910013008056

> <Compound>
6

> <standard_units>
nM

> hash
11452218105267670370

$$$$
5
XXILIB    08252103503D 0   0.00000     0.00000

 28 30  0     1  0            999 V2000
    4.9767    1.5665   -0.1556 Cl  0  0  0  0  0  1           0  0  0
   -5.0983    0.0139    4.0109 O   0  0  0  0  0  2           0  0  0
   -4.4712   -2.1150    4.4765 O   0  0  0  0  0  2           0  0  0
    1.5326    2.9244   -1.3730 O   0  0  0  0  0  2           0  0  0
    1.4552    0.0000    0.0000 N   0  0  0  0  0  3           0  0  0
    3.5567   -0.7165   -0.0626 N   0  0  0  0  0  3           0  0  0
    3.5404    0.6520   -0.0830 C   0  0  0  0  0  4           0  0  0
    2.2952   -1.1045    0.0000 C   0  0  0  0  0  4           0  0  0
    2.2476    1.1344   -0.0369 C   0  0  0  0  0  4           0  0  0
   -2.1248   -0.0336    5.3906 C   0  0  0  0  0  4           0  0  0
   -1.5855   -0.0233    4.0248 C   0  0  0  0  0  4           0  0  0
   -3.4710   -0.3321    5.6973 C   0  0  0  0  0  4           0  0  0
   -0.5420    0.0000    1.3967 C   0  0  0  0  0  4           0  0  0
   -1.2764    0.2968    6.4670 C   0  0  0  0  0  4           0  0  0
   -2.1086    0.8424    3.0527 C   0  0  0  0  0  4           0  0  0
   -0.5360   -0.8803    3.6616 C   0  0  0  0  0  4           0  0  0
   -3.9395   -0.2933    7.0203 C   0  0  0  0  0  4           0  0  0
   -1.5945    0.8522    1.7530 C   0  0  0  0  0  4           0  0  0
   -0.0218   -0.8708    2.3619 C   0  0  0  0  0  4           0  0  0
   -1.7447    0.3369    7.7829 C   0  0  0  0  0  4           0  0  0
   -3.0759    0.0456    8.0583 C   0  0  0  0  0  4           0  0  0
   -4.4191   -0.7738    4.6537 C   0  0  0  0  0  4           0  0  0
    1.7359    2.5214   -0.0253 C   0  0  0  0  0  4           0  0  0
    0.0000    0.0000    0.0000 C   0  0  0  0  0  4           0  0  0
    1.7776   -2.4166    0.0687 C   0  0  0  0  0  4           0  0  0
    2.3786   -3.4835    0.6190 C   0  0  0  0  0  4           0  0  0
    3.6881   -3.5774    1.3392 C   0  0  0  0  0  4           0  0  0
    3.5195   -3.3491    2.8333 C   0  0  0  0  0  4           0  0  0
  1  7  1  0     0  0
  2 22  2  0     0  0
  3 22  1  0     0  0
  4 23  1  0     0  0
  5  8  1  0     0  0
  5  9  1  0     0  0
  5 24  1  0     0  0
  6  7  1  0     0  0
  6  8  2  0     0  0
  7  9  2  0     0  0
  8 25  1  0     0  0
  9 23  1  0     0  0
 10 11  1  0     0  0
 10 12  1  0     0  0
 10 14  2  0     0  0
 11 15  2  0     0  0
 11 16  1  0     0  0
 12 17  2  0     0  0
 12 22  1  0     0  0
 13 18  2  0     0  0
 13 19  1  0     0  0
 13 24  1  0     0  0
 14 20  1  0     0  0
 15 18  1  0     0  0
 16 19  2  0     0  0
 17 21  1  0     0  0
 20 21  2  0     0  0
 25 26  2  0     0  0
 26 27  1  0     0  0
 27 28  1  0     0  0
M  END
> <standard_type>
pIC50

> <# Confs.>
25

> <canonical_smiles>
ClC(N=C1/C=C/CC)=C(CO)N1CC2=CC=C(C3=CC=CC=C3C(O)=O)C=C2

> <standard_relation>
=

> <Publication_ID>
nan

> <predicted_activity_value>
7.0

> <actual_activity_value>
7.096910013008056

> <Compound>
6

> <standard_units>
nM

> hash
11452218105267670370

$$$$
5
XXILIB    08252103503D 0   0.00000     0.00000

 28 30  0     1  0            999 V2000
    4.9767   -1.2177   -0.9976 Cl  0  0  0  0  0  1           0  0  0
   -2.4316    3.2277    5.2594 O   0  0  0  0  0  2           0  0  0
   -0.3444    2.6490    5.9307 O   0  0  0  0  0  2           0  0  0
    1.5326   -3.0387   -1.0970 O   0  0  0  0  0  2           0  0  0
    1.4552   -0.0000   -0.0000 N   0  0  0  0  0  3           0  0  0
    3.5567    0.4624    0.5509 N   0  0  0  0  0  3           0  0  0
    3.5404   -0.5197   -0.4024 C   0  0  0  0  0  4           0  0  0
    2.2952    0.7810    0.7810 C   0  0  0  0  0  4           0  0  0
    2.2476   -0.8283   -0.7761 C   0  0  0  0  0  4           0  0  0
   -2.1248   -0.0336    5.3906 C   0  0  0  0  0  4           0  0  0
   -1.5855   -0.0233    4.0248 C   0  0  0  0  0  4           0  0  0
   -2.1210    1.0943    6.2411 C   0  0  0  0  0  4           0  0  0
   -0.5420    0.0000    1.3967 C   0  0  0  0  0  4           0  0  0
   -2.6550   -1.2317    5.9112 C   0  0  0  0  0  4           0  0  0
   -2.1086    0.8424    3.0527 C   0  0  0  0  0  4           0  0  0
   -0.5360   -0.8803    3.6616 C   0  0  0  0  0  4           0  0  0
   -2.6200    1.0168    7.5511 C   0  0  0  0  0  4           0  0  0
   -1.5945    0.8522    1.7530 C   0  0  0  0  0  4           0  0  0
   -0.0218   -0.8708    2.3619 C   0  0  0  0  0  4           0  0  0
   -3.1495   -1.3077    7.2159 C   0  0  0  0  0  4           0  0  0
   -3.1284   -0.1851    8.0358 C   0  0  0  0  0  4           0  0  0
   -1.6678    2.4172    5.7641 C   0  0  0  0  0  4           0  0  0
    1.7359   -1.8008   -1.7650 C   0  0  0  0  0  4           0  0  0
    0.0000    0.0000    0.0000 C   0  0  0  0  0  4           0  0  0
    1.7776    1.7574    1.6602 C   0  0  0  0  0  4           0  0  0
    2.3297    2.1650    2.8140 C   0  0  0  0  0  4           0  0  0
    3.6255    1.7637    3.4480 C   0  0  0  0  0  4           0  0  0
    3.4476    0.5671    4.3696 C   0  0  0  0  0  4           0  0  0
  1  7  1  0     0  0
  2 22  2  0     0  0
  3 22  1  0     0  0
  4 23  1  0     0  0
  5  8  1  0     0  0
  5  9  1  0     0  0
  5 24  1  0     0  0
  6  7  1  0     0  0
  6  8  2  0     0  0
  7  9  2  0     0  0
  8 25  1  0     0  0
  9 23  1  0     0  0
 10 11  1  0     0  0
 10 12  1  0     0  0
 10 14  2  0     0  0
 11 15  2  0     0  0
 11 16  1  0     0  0
 12 17  2  0     0  0
 12 22  1  0     0  0
 13 18  2  0     0  0
 13 19  1  0     0  0
 13 24  1  0     0  0
 14 20  1  0     0  0
 15 18  1  0     0  0
 16 19  2  0     0  0
 17 21  1  0     0  0
 20 21  2  0     0  0
 25 26  2  0     0  0
 26 27  1  0     0  0
 27 28  1  0     0  0
M  END
> <standard_type>
pIC50

> <# Confs.>
25

> <canonical_smiles>
ClC(N=C1/C=C/CC)=C(CO)N1CC2=CC=C(C3=CC=CC=C3C(O)=O)C=C2

> <standard_relation>
=

> <Publication_ID>
nan

> <predicted_activity_value>
7.0

> <actual_activity_value>
7.096910013008056

> <Compound>
6

> <standard_units>
nM

> hash
11452218105267670370

$$$$
5
XXILIB    08252103503D 0   0.00000     0.00000

 28 30  0     1  0            999 V2000
    4.9767    1.5665   -0.1556 Cl  0  0  0  0  0  1           0  0  0
   -2.4316    3.2277    5.2594 O   0  0  0  0  0  2           0  0  0
   -0.3444    2.6490    5.9307 O   0  0  0  0  0  2           0  0  0
    1.5326    2.9244   -1.3730 O   0  0  0  0  0  2           0  0  0
    1.4552    0.0000    0.0000 N   0  0  0  0  0  3           0  0  0
    3.5567   -0.7165   -0.0626 N   0  0  0  0  0  3           0  0  0
    3.5404    0.6520   -0.0830 C   0  0  0  0  0  4           0  0  0
    2.2952   -1.1045    0.0000 C   0  0  0  0  0  4           0  0  0
    2.2476    1.1344   -0.0369 C   0  0  0  0  0  4           0  0  0
   -2.1248   -0.0336    5.3906 C   0  0  0  0  0  4           0  0  0
   -1.5855   -0.0233    4.0248 C   0  0  0  0  0  4           0  0  0
   -2.1210    1.0943    6.2411 C   0  0  0  0  0  4           0  0  0
   -0.5420    0.0000    1.3967 C   0  0  0  0  0  4           0  0  0
   -2.6550   -1.2317    5.9112 C   0  0  0  0  0  4           0  0  0
   -2.1086    0.8424    3.0527 C   0  0  0  0  0  4           0  0  0
   -0.5360   -0.8803    3.6616 C   0  0  0  0  0  4           0  0  0
   -2.6200    1.0168    7.5511 C   0  0  0  0  0  4           0  0  0
   -1.5945    0.8522    1.7530 C   0  0  0  0  0  4           0  0  0
   -0.0218   -0.8708    2.3619 C   0  0  0  0  0  4           0  0  0
   -3.1495   -1.3077    7.2159 C   0  0  0  0  0  4           0  0  0
   -3.1284   -0.1851    8.0358 C   0  0  0  0  0  4           0  0  0
   -1.6678    2.4172    5.7641 C   0  0  0  0  0  4           0  0  0
    1.7359    2.5214   -0.0253 C   0  0  0  0  0  4           0  0  0
    0.0000    0.0000    0.0000 C   0  0  0  0  0  4           0  0  0
    1.7776   -2.4166    0.0687 C   0  0  0  0  0  4           0  0  0
    2.3786   -3.4835    0.6190 C   0  0  0  0  0  4           0  0  0
    3.6881   -3.5774    1.3392 C   0  0  0  0  0  4           0  0  0
    3.5195   -3.3491    2.8333 C   0  0  0  0  0  4           0  0  0
  1  7  1  0     0  0
  2 22  2  0     0  0
  3 22  1  0     0  0
  4 23  1  0     0  0
  5  8  1  0     0  0
  5  9  1  0     0  0
  5 24  1  0     0  0
  6  7  1  0     0  0
  6  8  2  0     0  0
  7  9  2  0     0  0
  8 25  1  0     0  0
  9 23  1  0     0  0
 10 11  1  0     0  0
 10 12  1  0     0  0
 10 14  2  0     0  0
 11 15  2  0     0  0
 11 16  1  0     0  0
 12 17  2  0     0  0
 12 22  1  0     0  0
 13 18  2  0     0  0
 13 19  1  0     0  0
 13 24  1  0     0  0
 14 20  1  0     0  0
 15 18  1  0     0  0
 16 19  2  0     0  0
 17 21  1  0     0  0
 20 21  2  0     0  0
 25 26  2  0     0  0
 26 27  1  0     0  0
 27 28  1  0     0  0
M  END
> <standard_type>
pIC50

> <# Confs.>
25

> <canonical_smiles>
ClC(N=C1/C=C/CC)=C(CO)N1CC2=CC=C(C3=CC=CC=C3C(O)=O)C=C2

> <standard_relation>
=

> <Publication_ID>
nan

> <predicted_activity_value>
7.0

> <actual_activity_value>
7.096910013008056

> <Compound>
6

> <standard_units>
nM

> hash
11452218105267670370

$$$$
5
XXILIB    08252103503D 0   0.00000     0.00000

 28 30  0     1  0            999 V2000
    4.9767    1.5665   -0.1556 Cl  0  0  0  0  0  1           0  0  0
   -2.8878    2.8915    4.5188 O   0  0  0  0  0  2           0  0  0
   -1.3316    3.3730    6.0962 O   0  0  0  0  0  2           0  0  0
    1.5326    2.9244   -1.3730 O   0  0  0  0  0  2           0  0  0
    1.4552    0.0000    0.0000 N   0  0  0  0  0  3           0  0  0
    3.5567   -0.7165   -0.0626 N   0  0  0  0  0  3           0  0  0
    3.5404    0.6520   -0.0830 C   0  0  0  0  0  4           0  0  0
    2.2952   -1.1045    0.0000 C   0  0  0  0  0  4           0  0  0
    2.2476    1.1344   -0.0369 C   0  0  0  0  0  4           0  0  0
   -2.0983    0.0453    5.4009 C   0  0  0  0  0  4           0  0  0
   -1.5660    0.0320    4.0324 C   0  0  0  0  0  4           0  0  0
   -2.3668    1.2289    6.1237 C   0  0  0  0  0  4           0  0  0
   -0.5420    0.0000    1.3967 C   0  0  0  0  0  4           0  0  0
   -2.3355   -1.1792    6.0581 C   0  0  0  0  0  4           0  0  0
   -0.1826    0.0134    3.8002 C   0  0  0  0  0  4           0  0  0
   -2.4293    0.0391    2.9268 C   0  0  0  0  0  4           0  0  0
   -2.8437    1.1806    7.4434 C   0  0  0  0  0  4           0  0  0
    0.3236    0.0000    2.4974 C   0  0  0  0  0  4           0  0  0
   -1.9234    0.0259    1.6239 C   0  0  0  0  0  4           0  0  0
   -2.8082   -1.2255    7.3721 C   0  0  0  0  0  4           0  0  0
   -3.0584   -0.0464    8.0649 C   0  0  0  0  0  4           0  0  0
   -2.2343    2.5607    5.4977 C   0  0  0  0  0  4           0  0  0
    1.7359    2.5214   -0.0253 C   0  0  0  0  0  4           0  0  0
    0.0000    0.0000    0.0000 C   0  0  0  0  0  4           0  0  0
    1.7776   -2.4166    0.0687 C   0  0  0  0  0  4           0  0  0
    2.3297   -3.5207   -0.4589 C   0  0  0  0  0  4           0  0  0
    3.6255   -3.6853   -1.1910 C   0  0  0  0  0  4           0  0  0
    4.7673   -4.0022   -0.2378 C   0  0  0  0  0  4           0  0  0
  1  7  1  0     0  0
  2 22  2  0     0  0
  3 22  1  0     0  0
  4 23  1  0     0  0
  5  8  1  0     0  0
  5  9  1  0     0  0
  5 24  1  0     0  0
  6  7  1  0     0  0
  6  8  2  0     0  0
  7  9  2  0     0  0
  8 25  1  0     0  0
  9 23  1  0     0  0
 10 11  1  0     0  0
 10 12  1  0     0  0
 10 14  2  0     0  0
 11 15  2  0     0  0
 11 16  1  0     0  0
 12 17  2  0     0  0
 12 22  1  0     0  0
 13 18  2  0     0  0
 13 19  1  0     0  0
 13 24  1  0     0  0
 14 20  1  0     0  0
 15 18  1  0     0  0
 16 19  2  0     0  0
 17 21  1  0     0  0
 20 21  2  0     0  0
 25 26  2  0     0  0
 26 27  1  0     0  0
 27 28  1  0     0  0
M  END
> <standard_type>
pIC50

> <# Confs.>
25

> <canonical_smiles>
ClC(N=C1/C=C/CC)=C(CO)N1CC2=CC=C(C3=CC=CC=C3C(O)=O)C=C2

> <standard_relation>
=

> <Publication_ID>
nan

> <predicted_activity_value>
7.0

> <actual_activity_value>
7.096910013008056

> <Compound>
6

> <standard_units>
nM

> hash
11452218105267670370

$$$$
5
XXILIB    08252103503D 0   0.00000     0.00000

 28 30  0     1  0            999 V2000
    4.9767   -1.5665    0.1556 Cl  0  0  0  0  0  1           0  0  0
   -3.9799   -2.5398    4.6585 O   0  0  0  0  0  2           0  0  0
   -4.9944   -0.5829    4.1261 O   0  0  0  0  0  2           0  0  0
    1.5326   -2.9244    1.3730 O   0  0  0  0  0  2           0  0  0
    1.4552   -0.0000   -0.0000 N   0  0  0  0  0  3           0  0  0
    3.5567    0.7165    0.0626 N   0  0  0  0  0  3           0  0  0
    3.5404   -0.6520    0.0830 C   0  0  0  0  0  4           0  0  0
    2.2952    1.1045    0.0000 C   0  0  0  0  0  4           0  0  0
    2.2476   -1.1344    0.0369 C   0  0  0  0  0  4           0  0  0
   -2.0541    0.0021    5.4181 C   0  0  0  0  0  4           0  0  0
   -1.5352    0.0010    4.0443 C   0  0  0  0  0  4           0  0  0
   -3.2891   -0.5753    5.7878 C   0  0  0  0  0  4           0  0  0
   -0.5420    0.0000    1.3967 C   0  0  0  0  0  4           0  0  0
   -1.3075    0.6330    6.4341 C   0  0  0  0  0  4           0  0  0
   -1.2932   -1.2047    3.3692 C   0  0  0  0  0  4           0  0  0
   -1.2687    1.2058    3.3772 C   0  0  0  0  0  4           0  0  0
   -3.7509   -0.5143    7.1123 C   0  0  0  0  0  4           0  0  0
   -0.8000   -1.2052    2.0614 C   0  0  0  0  0  4           0  0  0
   -0.7753    1.2056    2.0695 C   0  0  0  0  0  4           0  0  0
   -1.7695    0.6946    7.7514 C   0  0  0  0  0  4           0  0  0
   -2.9918    0.1245    8.0888 C   0  0  0  0  0  4           0  0  0
   -4.1057   -1.3341    4.8180 C   0  0  0  0  0  4           0  0  0
    1.7359   -2.5214    0.0253 C   0  0  0  0  0  4           0  0  0
   -0.0000    0.0000    0.0000 C   0  0  0  0  0  4           0  0  0
    1.7776    2.4166   -0.0687 C   0  0  0  0  0  4           0  0  0
    2.3297    3.5207    0.4589 C   0  0  0  0  0  4           0  0  0
    3.6255    3.6853    1.1910 C   0  0  0  0  0  4           0  0  0
    3.4476    3.4907    2.6888 C   0  0  0  0  0  4           0  0  0
  1  7  1  0     0  0
  2 22  2  0     0  0
  3 22  1  0     0  0
  4 23  1  0     0  0
  5  8  1  0     0  0
  5  9  1  0     0  0
  5 24  1  0     0  0
  6  7  1  0     0  0
  6  8  2  0     0  0
  7  9  2  0     0  0
  8 25  1  0     0  0
  9 23  1  0     0  0
 10 11  1  0     0  0
 10 12  1  0     0  0
 10 14  2  0     0  0
 11 15  2  0     0  0
 11 16  1  0     0  0
 12 17  2  0     0  0
 12 22  1  0     0  0
 13 18  2  0     0  0
 13 19  1  0     0  0
 13 24  1  0     0  0
 14 20  1  0     0  0
 15 18  1  0     0  0
 16 19  2  0     0  0
 17 21  1  0     0  0
 20 21  2  0     0  0
 25 26  2  0     0  0
 26 27  1  0     0  0
 27 28  1  0     0  0
M  END
> <standard_type>
pIC50

> <# Confs.>
25

> <canonical_smiles>
ClC(N=C1/C=C/CC)=C(CO)N1CC2=CC=C(C3=CC=CC=C3C(O)=O)C=C2

> <standard_relation>
=

> <Publication_ID>
nan

> <predicted_activity_value>
7.0

> <actual_activity_value>
7.096910013008056

> <Compound>
6

> <standard_units>
nM

> hash
11452218105267670370

$$$$
5
XXILIB    08252103503D 0   0.00000     0.00000

 28 30  0     1  0            999 V2000
    4.9767    1.5665   -0.1556 Cl  0  0  0  0  0  1           0  0  0
   -2.5501   -2.8853    4.5584 O   0  0  0  0  0  2           0  0  0
   -1.2345   -3.1878    6.3805 O   0  0  0  0  0  2           0  0  0
    1.5326    2.9244   -1.3730 O   0  0  0  0  0  2           0  0  0
    1.4552    0.0000    0.0000 N   0  0  0  0  0  3           0  0  0
    3.5567   -0.7165   -0.0626 N   0  0  0  0  0  3           0  0  0
    3.5404    0.6520   -0.0830 C   0  0  0  0  0  4           0  0  0
    2.2952   -1.1045    0.0000 C   0  0  0  0  0  4           0  0  0
    2.2476    1.1344   -0.0369 C   0  0  0  0  0  4           0  0  0
   -2.0983    0.0453    5.4009 C   0  0  0  0  0  4           0  0  0
   -1.5660    0.0320    4.0324 C   0  0  0  0  0  4           0  0  0
   -2.3965   -1.1240    6.1351 C   0  0  0  0  0  4           0  0  0
   -0.5420    0.0000    1.3967 C   0  0  0  0  0  4           0  0  0
   -2.3594    1.2824    6.0247 C   0  0  0  0  0  4           0  0  0
   -0.1826    0.0134    3.8002 C   0  0  0  0  0  4           0  0  0
   -2.4293    0.0391    2.9268 C   0  0  0  0  0  4           0  0  0
   -2.9363   -1.0502    7.4292 C   0  0  0  0  0  4           0  0  0
    0.3236    0.0000    2.4974 C   0  0  0  0  0  4           0  0  0
   -1.9234    0.0259    1.6239 C   0  0  0  0  0  4           0  0  0
   -2.8985    1.3541    7.3119 C   0  0  0  0  0  4           0  0  0
   -3.1899    0.1886    8.0115 C   0  0  0  0  0  4           0  0  0
   -2.0801   -2.4670    5.6068 C   0  0  0  0  0  4           0  0  0
    1.7359    2.5214   -0.0253 C   0  0  0  0  0  4           0  0  0
    0.0000    0.0000    0.0000 C   0  0  0  0  0  4           0  0  0
    1.7776   -2.4166    0.0687 C   0  0  0  0  0  4           0  0  0
    2.3297   -3.5207   -0.4589 C   0  0  0  0  0  4           0  0  0
    3.6255   -3.6853   -1.1910 C   0  0  0  0  0  4           0  0  0
    4.7673   -4.0022   -0.2378 C   0  0  0  0  0  4           0  0  0
  1  7  1  0     0  0
  2 22  2  0     0  0
  3 22  1  0     0  0
  4 23  1  0     0  0
  5  8  1  0     0  0
  5  9  1  0     0  0
  5 24  1  0     0  0
  6  7  1  0     0  0
  6  8  2  0     0  0
  7  9  2  0     0  0
  8 25  1  0     0  0
  9 23  1  0     0  0
 10 11  1  0     0  0
 10 12  1  0     0  0
 10 14  2  0     0  0
 11 15  2  0     0  0
 11 16  1  0     0  0
 12 17  2  0     0  0
 12 22  1  0     0  0
 13 18  2  0     0  0
 13 19  1  0     0  0
 13 24  1  0     0  0
 14 20  1  0     0  0
 15 18  1  0     0  0
 16 19  2  0     0  0
 17 21  1  0     0  0
 20 21  2  0     0  0
 25 26  2  0     0  0
 26 27  1  0     0  0
 27 28  1  0     0  0
M  END
> <standard_type>
pIC50

> <# Confs.>
25

> <canonical_smiles>
ClC(N=C1/C=C/CC)=C(CO)N1CC2=CC=C(C3=CC=CC=C3C(O)=O)C=C2

> <standard_relation>
=

> <Publication_ID>
nan

> <predicted_activity_value>
7.0

> <actual_activity_value>
7.096910013008056

> <Compound>
6

> <standard_units>
nM

> hash
11452218105267670370

$$$$
5
XXILIB    08252103503D 0   0.00000     0.00000

 28 30  0     1  0            999 V2000
    4.9767   -1.5665    0.1556 Cl  0  0  0  0  0  1           0  0  0
   -3.9799   -2.5398    4.6585 O   0  0  0  0  0  2           0  0  0
   -4.9944   -0.5829    4.1261 O   0  0  0  0  0  2           0  0  0
    1.5326   -2.9244    1.3730 O   0  0  0  0  0  2           0  0  0
    1.4552   -0.0000   -0.0000 N   0  0  0  0  0  3           0  0  0
    3.5567    0.7165    0.0626 N   0  0  0  0  0  3           0  0  0
    3.5404   -0.6520    0.0830 C   0  0  0  0  0  4           0  0  0
    2.2952    1.1045    0.0000 C   0  0  0  0  0  4           0  0  0
    2.2476   -1.1344    0.0369 C   0  0  0  0  0  4           0  0  0
   -2.0541    0.0021    5.4181 C   0  0  0  0  0  4           0  0  0
   -1.5352    0.0010    4.0443 C   0  0  0  0  0  4           0  0  0
   -3.2891   -0.5753    5.7878 C   0  0  0  0  0  4           0  0  0
   -0.5420    0.0000    1.3967 C   0  0  0  0  0  4           0  0  0
   -1.3075    0.6330    6.4341 C   0  0  0  0  0  4           0  0  0
   -1.2932   -1.2047    3.3692 C   0  0  0  0  0  4           0  0  0
   -1.2687    1.2058    3.3772 C   0  0  0  0  0  4           0  0  0
   -3.7509   -0.5143    7.1123 C   0  0  0  0  0  4           0  0  0
   -0.8000   -1.2052    2.0614 C   0  0  0  0  0  4           0  0  0
   -0.7753    1.2056    2.0695 C   0  0  0  0  0  4           0  0  0
   -1.7695    0.6946    7.7514 C   0  0  0  0  0  4           0  0  0
   -2.9918    0.1245    8.0888 C   0  0  0  0  0  4           0  0  0
   -4.1057   -1.3341    4.8180 C   0  0  0  0  0  4           0  0  0
    1.7359   -2.5214    0.0253 C   0  0  0  0  0  4           0  0  0
   -0.0000    0.0000    0.0000 C   0  0  0  0  0  4           0  0  0
    1.7776    2.4166   -0.0687 C   0  0  0  0  0  4           0  0  0
    2.3297    3.5207    0.4589 C   0  0  0  0  0  4           0  0  0
    3.6255    3.6853    1.1910 C   0  0  0  0  0  4           0  0  0
    4.7673    4.0022    0.2378 C   0  0  0  0  0  4           0  0  0
  1  7  1  0     0  0
  2 22  2  0     0  0
  3 22  1  0     0  0
  4 23  1  0     0  0
  5  8  1  0     0  0
  5  9  1  0     0  0
  5 24  1  0     0  0
  6  7  1  0     0  0
  6  8  2  0     0  0
  7  9  2  0     0  0
  8 25  1  0     0  0
  9 23  1  0     0  0
 10 11  1  0     0  0
 10 12  1  0     0  0
 10 14  2  0     0  0
 11 15  2  0     0  0
 11 16  1  0     0  0
 12 17  2  0     0  0
 12 22  1  0     0  0
 13 18  2  0     0  0
 13 19  1  0     0  0
 13 24  1  0     0  0
 14 20  1  0     0  0
 15 18  1  0     0  0
 16 19  2  0     0  0
 17 21  1  0     0  0
 20 21  2  0     0  0
 25 26  2  0     0  0
 26 27  1  0     0  0
 27 28  1  0     0  0
M  END
> <standard_type>
pIC50

> <# Confs.>
25

> <canonical_smiles>
ClC(N=C1/C=C/CC)=C(CO)N1CC2=CC=C(C3=CC=CC=C3C(O)=O)C=C2

> <standard_relation>
=

> <Publication_ID>
nan

> <predicted_activity_value>
7.0

> <actual_activity_value>
7.096910013008056

> <Compound>
6

> <standard_units>
nM

> hash
11452218105267670370

$$$$
5
XXILIB    08252103503D 0   0.00000     0.00000

 28 30  0     1  0            999 V2000
    4.9767   -1.5665    0.1556 Cl  0  0  0  0  0  1           0  0  0
   -4.9320    0.8934    4.1257 O   0  0  0  0  0  2           0  0  0
   -4.8430   -1.3565    4.3937 O   0  0  0  0  0  2           0  0  0
    1.5326   -2.9244    1.3730 O   0  0  0  0  0  2           0  0  0
    1.4552   -0.0000   -0.0000 N   0  0  0  0  0  3           0  0  0
    3.5567    0.7165    0.0626 N   0  0  0  0  0  3           0  0  0
    3.5404   -0.6520    0.0830 C   0  0  0  0  0  4           0  0  0
    2.2952    1.1045    0.0000 C   0  0  0  0  0  4           0  0  0
    2.2476   -1.1344    0.0369 C   0  0  0  0  0  4           0  0  0
   -2.0541    0.0021    5.4181 C   0  0  0  0  0  4           0  0  0
   -1.5352    0.0010    4.0443 C   0  0  0  0  0  4           0  0  0
   -3.4309    0.0145    5.7337 C   0  0  0  0  0  4           0  0  0
   -0.5420    0.0000    1.3967 C   0  0  0  0  0  4           0  0  0
   -1.1454    0.0198    6.4959 C   0  0  0  0  0  4           0  0  0
   -1.2932   -1.2047    3.3692 C   0  0  0  0  0  4           0  0  0
   -1.2687    1.2058    3.3772 C   0  0  0  0  0  4           0  0  0
   -3.8692    0.0495    7.0671 C   0  0  0  0  0  4           0  0  0
   -0.8000   -1.2052    2.0614 C   0  0  0  0  0  4           0  0  0
   -0.7753    1.2056    2.0695 C   0  0  0  0  0  4           0  0  0
   -1.5833    0.0567    7.8223 C   0  0  0  0  0  4           0  0  0
   -2.9439    0.0752    8.1069 C   0  0  0  0  0  4           0  0  0
   -4.4633   -0.0894    4.6819 C   0  0  0  0  0  4           0  0  0
    1.7359   -2.5214    0.0253 C   0  0  0  0  0  4           0  0  0
   -0.0000    0.0000    0.0000 C   0  0  0  0  0  4           0  0  0
    1.7776    2.4166   -0.0687 C   0  0  0  0  0  4           0  0  0
    2.3297    3.5207    0.4589 C   0  0  0  0  0  4           0  0  0
    3.6255    3.6853    1.1910 C   0  0  0  0  0  4           0  0  0
    3.4476    3.4907    2.6888 C   0  0  0  0  0  4           0  0  0
  1  7  1  0     0  0
  2 22  2  0     0  0
  3 22  1  0     0  0
  4 23  1  0     0  0
  5  8  1  0     0  0
  5  9  1  0     0  0
  5 24  1  0     0  0
  6  7  1  0     0  0
  6  8  2  0     0  0
  7  9  2  0     0  0
  8 25  1  0     0  0
  9 23  1  0     0  0
 10 11  1  0     0  0
 10 12  1  0     0  0
 10 14  2  0     0  0
 11 15  2  0     0  0
 11 16  1  0     0  0
 12 17  2  0     0  0
 12 22  1  0     0  0
 13 18  2  0     0  0
 13 19  1  0     0  0
 13 24  1  0     0  0
 14 20  1  0     0  0
 15 18  1  0     0  0
 16 19  2  0     0  0
 17 21  1  0     0  0
 20 21  2  0     0  0
 25 26  2  0     0  0
 26 27  1  0     0  0
 27 28  1  0     0  0
M  END
> <standard_type>
pIC50

> <# Confs.>
25

> <canonical_smiles>
ClC(N=C1/C=C/CC)=C(CO)N1CC2=CC=C(C3=CC=CC=C3C(O)=O)C=C2

> <standard_relation>
=

> <Publication_ID>
nan

> <predicted_activity_value>
7.0

> <actual_activity_value>
7.096910013008056

> <Compound>
6

> <standard_units>
nM

> hash
11452218105267670370

$$$$
5
XXILIB    08252103503D 0   0.00000     0.00000

 28 30  0     1  0            999 V2000
    4.9767   -1.5665    0.1556 Cl  0  0  0  0  0  1           0  0  0
   -4.9320    0.8934    4.1257 O   0  0  0  0  0  2           0  0  0
   -4.8430   -1.3565    4.3937 O   0  0  0  0  0  2           0  0  0
    1.5326   -2.9244    1.3730 O   0  0  0  0  0  2           0  0  0
    1.4552   -0.0000   -0.0000 N   0  0  0  0  0  3           0  0  0
    3.5567    0.7165    0.0626 N   0  0  0  0  0  3           0  0  0
    3.5404   -0.6520    0.0830 C   0  0  0  0  0  4           0  0  0
    2.2952    1.1045    0.0000 C   0  0  0  0  0  4           0  0  0
    2.2476   -1.1344    0.0369 C   0  0  0  0  0  4           0  0  0
   -2.0541    0.0021    5.4181 C   0  0  0  0  0  4           0  0  0
   -1.5352    0.0010    4.0443 C   0  0  0  0  0  4           0  0  0
   -3.4309    0.0145    5.7337 C   0  0  0  0  0  4           0  0  0
   -0.5420    0.0000    1.3967 C   0  0  0  0  0  4           0  0  0
   -1.1454    0.0198    6.4959 C   0  0  0  0  0  4           0  0  0
   -1.2932   -1.2047    3.3692 C   0  0  0  0  0  4           0  0  0
   -1.2687    1.2058    3.3772 C   0  0  0  0  0  4           0  0  0
   -3.8692    0.0495    7.0671 C   0  0  0  0  0  4           0  0  0
   -0.8000   -1.2052    2.0614 C   0  0  0  0  0  4           0  0  0
   -0.7753    1.2056    2.0695 C   0  0  0  0  0  4           0  0  0
   -1.5833    0.0567    7.8223 C   0  0  0  0  0  4           0  0  0
   -2.9439    0.0752    8.1069 C   0  0  0  0  0  4           0  0  0
   -4.4633   -0.0894    4.6819 C   0  0  0  0  0  4           0  0  0
    1.7359   -2.5214    0.0253 C   0  0  0  0  0  4           0  0  0
   -0.0000    0.0000    0.0000 C   0  0  0  0  0  4           0  0  0
    1.7776    2.4166   -0.0687 C   0  0  0  0  0  4           0  0  0
    2.3297    3.5207    0.4589 C   0  0  0  0  0  4           0  0  0
    3.6255    3.6853    1.1910 C   0  0  0  0  0  4           0  0  0
    4.7673    4.0022    0.2378 C   0  0  0  0  0  4           0  0  0
  1  7  1  0     0  0
  2 22  2  0     0  0
  3 22  1  0     0  0
  4 23  1  0     0  0
  5  8  1  0     0  0
  5  9  1  0     0  0
  5 24  1  0     0  0
  6  7  1  0     0  0
  6  8  2  0     0  0
  7  9  2  0     0  0
  8 25  1  0     0  0
  9 23  1  0     0  0
 10 11  1  0     0  0
 10 12  1  0     0  0
 10 14  2  0     0  0
 11 15  2  0     0  0
 11 16  1  0     0  0
 12 17  2  0     0  0
 12 22  1  0     0  0
 13 18  2  0     0  0
 13 19  1  0     0  0
 13 24  1  0     0  0
 14 20  1  0     0  0
 15 18  1  0     0  0
 16 19  2  0     0  0
 17 21  1  0     0  0
 20 21  2  0     0  0
 25 26  2  0     0  0
 26 27  1  0     0  0
 27 28  1  0     0  0
M  END
> <standard_type>
pIC50

> <# Confs.>
25

> <canonical_smiles>
ClC(N=C1/C=C/CC)=C(CO)N1CC2=CC=C(C3=CC=CC=C3C(O)=O)C=C2

> <standard_relation>
=

> <Publication_ID>
nan

> <predicted_activity_value>
7.0

> <actual_activity_value>
7.096910013008056

> <Compound>
6

> <standard_units>
nM

> hash
11452218105267670370

$$$$
5
XXILIB    08252103503D 0   0.00000     0.00000

 28 30  0     1  0            999 V2000
    4.9767   -1.2177   -0.9976 Cl  0  0  0  0  0  1           0  0  0
   -2.4316    3.2277    5.2594 O   0  0  0  0  0  2           0  0  0
   -0.3444    2.6490    5.9307 O   0  0  0  0  0  2           0  0  0
    1.5326   -3.0387   -1.0970 O   0  0  0  0  0  2           0  0  0
    1.4552   -0.0000   -0.0000 N   0  0  0  0  0  3           0  0  0
    3.5567    0.4624    0.5509 N   0  0  0  0  0  3           0  0  0
    3.5404   -0.5197   -0.4024 C   0  0  0  0  0  4           0  0  0
    2.2952    0.7810    0.7810 C   0  0  0  0  0  4           0  0  0
    2.2476   -0.8283   -0.7761 C   0  0  0  0  0  4           0  0  0
   -2.1248   -0.0336    5.3906 C   0  0  0  0  0  4           0  0  0
   -1.5855   -0.0233    4.0248 C   0  0  0  0  0  4           0  0  0
   -2.1210    1.0943    6.2411 C   0  0  0  0  0  4           0  0  0
   -0.5420    0.0000    1.3967 C   0  0  0  0  0  4           0  0  0
   -2.6550   -1.2317    5.9112 C   0  0  0  0  0  4           0  0  0
   -2.1086    0.8424    3.0527 C   0  0  0  0  0  4           0  0  0
   -0.5360   -0.8803    3.6616 C   0  0  0  0  0  4           0  0  0
   -2.6200    1.0168    7.5511 C   0  0  0  0  0  4           0  0  0
   -1.5945    0.8522    1.7530 C   0  0  0  0  0  4           0  0  0
   -0.0218   -0.8708    2.3619 C   0  0  0  0  0  4           0  0  0
   -3.1495   -1.3077    7.2159 C   0  0  0  0  0  4           0  0  0
   -3.1284   -0.1851    8.0358 C   0  0  0  0  0  4           0  0  0
   -1.6678    2.4172    5.7641 C   0  0  0  0  0  4           0  0  0
    1.7359   -1.8008   -1.7650 C   0  0  0  0  0  4           0  0  0
    0.0000    0.0000    0.0000 C   0  0  0  0  0  4           0  0  0
    1.7776    1.7574    1.6602 C   0  0  0  0  0  4           0  0  0
    2.3297    2.1650    2.8140 C   0  0  0  0  0  4           0  0  0
    3.6255    1.7637    3.4480 C   0  0  0  0  0  4           0  0  0
    4.7673    2.6618    2.9981 C   0  0  0  0  0  4           0  0  0
  1  7  1  0     0  0
  2 22  2  0     0  0
  3 22  1  0     0  0
  4 23  1  0     0  0
  5  8  1  0     0  0
  5  9  1  0     0  0
  5 24  1  0     0  0
  6  7  1  0     0  0
  6  8  2  0     0  0
  7  9  2  0     0  0
  8 25  1  0     0  0
  9 23  1  0     0  0
 10 11  1  0     0  0
 10 12  1  0     0  0
 10 14  2  0     0  0
 11 15  2  0     0  0
 11 16  1  0     0  0
 12 17  2  0     0  0
 12 22  1  0     0  0
 13 18  2  0     0  0
 13 19  1  0     0  0
 13 24  1  0     0  0
 14 20  1  0     0  0
 15 18  1  0     0  0
 16 19  2  0     0  0
 17 21  1  0     0  0
 20 21  2  0     0  0
 25 26  2  0     0  0
 26 27  1  0     0  0
 27 28  1  0     0  0
M  END
> <standard_type>
pIC50

> <# Confs.>
25

> <canonical_smiles>
ClC(N=C1/C=C/CC)=C(CO)N1CC2=CC=C(C3=CC=CC=C3C(O)=O)C=C2

> <standard_relation>
=

> <Publication_ID>
nan

> <predicted_activity_value>
7.0

> <actual_activity_value>
7.096910013008056

> <Compound>
6

> <standard_units>
nM

> hash
11452218105267670370

$$$$
5
XXILIB    08252103503D 0   0.00000     0.00000

 28 30  0     1  0            999 V2000
    4.9767    1.5665   -0.1556 Cl  0  0  0  0  0  1           0  0  0
   -1.4270    3.0374    5.0856 O   0  0  0  0  0  2           0  0  0
    0.0936    2.4444    6.6597 O   0  0  0  0  0  2           0  0  0
    1.5326    2.9244   -1.3730 O   0  0  0  0  0  2           0  0  0
    1.4552    0.0000    0.0000 N   0  0  0  0  0  3           0  0  0
    3.5567   -0.7165   -0.0626 N   0  0  0  0  0  3           0  0  0
    3.5404    0.6520   -0.0830 C   0  0  0  0  0  4           0  0  0
    2.2952   -1.1045    0.0000 C   0  0  0  0  0  4           0  0  0
    2.2476    1.1344   -0.0369 C   0  0  0  0  0  4           0  0  0
   -2.0983    0.0453    5.4009 C   0  0  0  0  0  4           0  0  0
   -1.5660    0.0320    4.0324 C   0  0  0  0  0  4           0  0  0
   -1.8206    1.0654    6.3378 C   0  0  0  0  0  4           0  0  0
   -0.5420    0.0000    1.3967 C   0  0  0  0  0  4           0  0  0
   -2.9107   -1.0229    5.8328 C   0  0  0  0  0  4           0  0  0
   -0.1826    0.0134    3.8002 C   0  0  0  0  0  4           0  0  0
   -2.4293    0.0391    2.9268 C   0  0  0  0  0  4           0  0  0
   -2.3302    1.0083    7.6448 C   0  0  0  0  0  4           0  0  0
    0.3236    0.0000    2.4974 C   0  0  0  0  0  4           0  0  0
   -1.9234    0.0259    1.6239 C   0  0  0  0  0  4           0  0  0
   -3.4154   -1.0792    7.1345 C   0  0  0  0  0  4           0  0  0
   -3.1221   -0.0661    8.0403 C   0  0  0  0  0  4           0  0  0
   -1.0524    2.2697    5.9603 C   0  0  0  0  0  4           0  0  0
    1.7359    2.5214   -0.0253 C   0  0  0  0  0  4           0  0  0
    0.0000    0.0000    0.0000 C   0  0  0  0  0  4           0  0  0
    1.7776   -2.4166    0.0687 C   0  0  0  0  0  4           0  0  0
    2.3297   -3.5207   -0.4589 C   0  0  0  0  0  4           0  0  0
    3.6255   -3.6853   -1.1910 C   0  0  0  0  0  4           0  0  0
    3.4476   -3.4907   -2.6888 C   0  0  0  0  0  4           0  0  0
  1  7  1  0     0  0
  2 22  2  0     0  0
  3 22  1  0     0  0
  4 23  1  0     0  0
  5  8  1  0     0  0
  5  9  1  0     0  0
  5 24  1  0     0  0
  6  7  1  0     0  0
  6  8  2  0     0  0
  7  9  2  0     0  0
  8 25  1  0     0  0
  9 23  1  0     0  0
 10 11  1  0     0  0
 10 12  1  0     0  0
 10 14  2  0     0  0
 11 15  2  0     0  0
 11 16  1  0     0  0
 12 17  2  0     0  0
 12 22  1  0     0  0
 13 18  2  0     0  0
 13 19  1  0     0  0
 13 24  1  0     0  0
 14 20  1  0     0  0
 15 18  1  0     0  0
 16 19  2  0     0  0
 17 21  1  0     0  0
 20 21  2  0     0  0
 25 26  2  0     0  0
 26 27  1  0     0  0
 27 28  1  0     0  0
M  END
> <standard_type>
pIC50

> <# Confs.>
25

> <canonical_smiles>
ClC(N=C1/C=C/CC)=C(CO)N1CC2=CC=C(C3=CC=CC=C3C(O)=O)C=C2

> <standard_relation>
=

> <Publication_ID>
nan

> <predicted_activity_value>
7.0

> <actual_activity_value>
7.096910013008056

> <Compound>
6

> <standard_units>
nM

> hash
11452218105267670370

$$$$
5
XXILIB    08252103503D 0   0.00000     0.00000

 28 30  0     1  0            999 V2000
    4.9767    1.5665   -0.1556 Cl  0  0  0  0  0  1           0  0  0
   -0.9390   -2.8101    5.3325 O   0  0  0  0  0  2           0  0  0
   -3.1552   -3.2750    5.4518 O   0  0  0  0  0  2           0  0  0
    1.5326    2.9244   -1.3730 O   0  0  0  0  0  2           0  0  0
    1.4552    0.0000    0.0000 N   0  0  0  0  0  3           0  0  0
    3.5567   -0.7165   -0.0626 N   0  0  0  0  0  3           0  0  0
    3.5404    0.6520   -0.0830 C   0  0  0  0  0  4           0  0  0
    2.2952   -1.1045    0.0000 C   0  0  0  0  0  4           0  0  0
    2.2476    1.1344   -0.0369 C   0  0  0  0  0  4           0  0  0
   -2.0983    0.0453    5.4009 C   0  0  0  0  0  4           0  0  0
   -1.5660    0.0320    4.0324 C   0  0  0  0  0  4           0  0  0
   -2.3965   -1.1240    6.1351 C   0  0  0  0  0  4           0  0  0
   -0.5420    0.0000    1.3967 C   0  0  0  0  0  4           0  0  0
   -2.3594    1.2824    6.0247 C   0  0  0  0  0  4           0  0  0
   -0.1826    0.0134    3.8002 C   0  0  0  0  0  4           0  0  0
   -2.4293    0.0391    2.9268 C   0  0  0  0  0  4           0  0  0
   -2.9363   -1.0502    7.4292 C   0  0  0  0  0  4           0  0  0
    0.3236    0.0000    2.4974 C   0  0  0  0  0  4           0  0  0
   -1.9234    0.0259    1.6239 C   0  0  0  0  0  4           0  0  0
   -2.8985    1.3541    7.3119 C   0  0  0  0  0  4           0  0  0
   -3.1899    0.1886    8.0115 C   0  0  0  0  0  4           0  0  0
   -2.0801   -2.4670    5.6068 C   0  0  0  0  0  4           0  0  0
    1.7359    2.5214   -0.0253 C   0  0  0  0  0  4           0  0  0
    0.0000    0.0000    0.0000 C   0  0  0  0  0  4           0  0  0
    1.7776   -2.4166    0.0687 C   0  0  0  0  0  4           0  0  0
    2.3297   -3.5207   -0.4589 C   0  0  0  0  0  4           0  0  0
    3.6255   -3.6853   -1.1910 C   0  0  0  0  0  4           0  0  0
    4.7673   -4.0022   -0.2378 C   0  0  0  0  0  4           0  0  0
  1  7  1  0     0  0
  2 22  2  0     0  0
  3 22  1  0     0  0
  4 23  1  0     0  0
  5  8  1  0     0  0
  5  9  1  0     0  0
  5 24  1  0     0  0
  6  7  1  0     0  0
  6  8  2  0     0  0
  7  9  2  0     0  0
  8 25  1  0     0  0
  9 23  1  0     0  0
 10 11  1  0     0  0
 10 12  1  0     0  0
 10 14  2  0     0  0
 11 15  2  0     0  0
 11 16  1  0     0  0
 12 17  2  0     0  0
 12 22  1  0     0  0
 13 18  2  0     0  0
 13 19  1  0     0  0
 13 24  1  0     0  0
 14 20  1  0     0  0
 15 18  1  0     0  0
 16 19  2  0     0  0
 17 21  1  0     0  0
 20 21  2  0     0  0
 25 26  2  0     0  0
 26 27  1  0     0  0
 27 28  1  0     0  0
M  END
> <standard_type>
pIC50

> <# Confs.>
25

> <canonical_smiles>
ClC(N=C1/C=C/CC)=C(CO)N1CC2=CC=C(C3=CC=CC=C3C(O)=O)C=C2

> <standard_relation>
=

> <Publication_ID>
nan

> <predicted_activity_value>
7.0

> <actual_activity_value>
7.096910013008056

> <Compound>
6

> <standard_units>
nM

> hash
11452218105267670370

$$$$
5
XXILIB    08252103503D 0   0.00000     0.00000

 28 30  0     1  0            999 V2000
    4.9767    1.5665   -0.1556 Cl  0  0  0  0  0  1           0  0  0
   -1.1767    2.9642    5.0355 O   0  0  0  0  0  2           0  0  0
   -3.3756    3.2888    5.4845 O   0  0  0  0  0  2           0  0  0
    1.5326    2.9244   -1.3730 O   0  0  0  0  0  2           0  0  0
    1.4552    0.0000    0.0000 N   0  0  0  0  0  3           0  0  0
    3.5567   -0.7165   -0.0626 N   0  0  0  0  0  3           0  0  0
    3.5404    0.6520   -0.0830 C   0  0  0  0  0  4           0  0  0
    2.2952   -1.1045    0.0000 C   0  0  0  0  0  4           0  0  0
    2.2476    1.1344   -0.0369 C   0  0  0  0  0  4           0  0  0
   -2.0983    0.0453    5.4009 C   0  0  0  0  0  4           0  0  0
   -1.5660    0.0320    4.0324 C   0  0  0  0  0  4           0  0  0
   -2.3668    1.2289    6.1237 C   0  0  0  0  0  4           0  0  0
   -0.5420    0.0000    1.3967 C   0  0  0  0  0  4           0  0  0
   -2.3355   -1.1792    6.0581 C   0  0  0  0  0  4           0  0  0
   -0.1826    0.0134    3.8002 C   0  0  0  0  0  4           0  0  0
   -2.4293    0.0391    2.9268 C   0  0  0  0  0  4           0  0  0
   -2.8437    1.1806    7.4434 C   0  0  0  0  0  4           0  0  0
    0.3236    0.0000    2.4974 C   0  0  0  0  0  4           0  0  0
   -1.9234    0.0259    1.6239 C   0  0  0  0  0  4           0  0  0
   -2.8082   -1.2255    7.3721 C   0  0  0  0  0  4           0  0  0
   -3.0584   -0.0464    8.0649 C   0  0  0  0  0  4           0  0  0
   -2.2343    2.5607    5.4977 C   0  0  0  0  0  4           0  0  0
    1.7359    2.5214   -0.0253 C   0  0  0  0  0  4           0  0  0
    0.0000    0.0000    0.0000 C   0  0  0  0  0  4           0  0  0
    1.7776   -2.4166    0.0687 C   0  0  0  0  0  4           0  0  0
    2.3297   -3.5207   -0.4589 C   0  0  0  0  0  4           0  0  0
    3.6255   -3.6853   -1.1910 C   0  0  0  0  0  4           0  0  0
    4.7673   -4.0022   -0.2378 C   0  0  0  0  0  4           0  0  0
  1  7  1  0     0  0
  2 22  2  0     0  0
  3 22  1  0     0  0
  4 23  1  0     0  0
  5  8  1  0     0  0
  5  9  1  0     0  0
  5 24  1  0     0  0
  6  7  1  0     0  0
  6  8  2  0     0  0
  7  9  2  0     0  0
  8 25  1  0     0  0
  9 23  1  0     0  0
 10 11  1  0     0  0
 10 12  1  0     0  0
 10 14  2  0     0  0
 11 15  2  0     0  0
 11 16  1  0     0  0
 12 17  2  0     0  0
 12 22  1  0     0  0
 13 18  2  0     0  0
 13 19  1  0     0  0
 13 24  1  0     0  0
 14 20  1  0     0  0
 15 18  1  0     0  0
 16 19  2  0     0  0
 17 21  1  0     0  0
 20 21  2  0     0  0
 25 26  2  0     0  0
 26 27  1  0     0  0
 27 28  1  0     0  0
M  END
> <standard_type>
pIC50

> <# Confs.>
25

> <canonical_smiles>
ClC(N=C1/C=C/CC)=C(CO)N1CC2=CC=C(C3=CC=CC=C3C(O)=O)C=C2

> <standard_relation>
=

> <Publication_ID>
nan

> <predicted_activity_value>
7.0

> <actual_activity_value>
7.096910013008056

> <Compound>
6

> <standard_units>
nM

> hash
11452218105267670370

$$$$
5
XXILIB    08252103503D 0   0.00000     0.00000

 28 30  0     1  0            999 V2000
    4.9767   -1.2177   -0.9976 Cl  0  0  0  0  0  1           0  0  0
   -5.0983    0.0139    4.0109 O   0  0  0  0  0  2           0  0  0
   -4.4712   -2.1150    4.4765 O   0  0  0  0  0  2           0  0  0
    1.5326   -3.0387   -1.0970 O   0  0  0  0  0  2           0  0  0
    1.4552   -0.0000   -0.0000 N   0  0  0  0  0  3           0  0  0
    3.5567    0.4624    0.5509 N   0  0  0  0  0  3           0  0  0
    3.5404   -0.5197   -0.4024 C   0  0  0  0  0  4           0  0  0
    2.2952    0.7810    0.7810 C   0  0  0  0  0  4           0  0  0
    2.2476   -0.8283   -0.7761 C   0  0  0  0  0  4           0  0  0
   -2.1248   -0.0336    5.3906 C   0  0  0  0  0  4           0  0  0
   -1.5855   -0.0233    4.0248 C   0  0  0  0  0  4           0  0  0
   -3.4710   -0.3321    5.6973 C   0  0  0  0  0  4           0  0  0
   -0.5420    0.0000    1.3967 C   0  0  0  0  0  4           0  0  0
   -1.2764    0.2968    6.4670 C   0  0  0  0  0  4           0  0  0
   -2.1086    0.8424    3.0527 C   0  0  0  0  0  4           0  0  0
   -0.5360   -0.8803    3.6616 C   0  0  0  0  0  4           0  0  0
   -3.9395   -0.2933    7.0203 C   0  0  0  0  0  4           0  0  0
   -1.5945    0.8522    1.7530 C   0  0  0  0  0  4           0  0  0
   -0.0218   -0.8708    2.3619 C   0  0  0  0  0  4           0  0  0
   -1.7447    0.3369    7.7829 C   0  0  0  0  0  4           0  0  0
   -3.0759    0.0456    8.0583 C   0  0  0  0  0  4           0  0  0
   -4.4191   -0.7738    4.6537 C   0  0  0  0  0  4           0  0  0
    1.7359   -1.8008   -1.7650 C   0  0  0  0  0  4           0  0  0
    0.0000    0.0000    0.0000 C   0  0  0  0  0  4           0  0  0
    1.7776    1.7574    1.6602 C   0  0  0  0  0  4           0  0  0
    2.3297    2.1650    2.8140 C   0  0  0  0  0  4           0  0  0
    3.6255    1.7637    3.4480 C   0  0  0  0  0  4           0  0  0
    3.4476    0.5671    4.3696 C   0  0  0  0  0  4           0  0  0
  1  7  1  0     0  0
  2 22  2  0     0  0
  3 22  1  0     0  0
  4 23  1  0     0  0
  5  8  1  0     0  0
  5  9  1  0     0  0
  5 24  1  0     0  0
  6  7  1  0     0  0
  6  8  2  0     0  0
  7  9  2  0     0  0
  8 25  1  0     0  0
  9 23  1  0     0  0
 10 11  1  0     0  0
 10 12  1  0     0  0
 10 14  2  0     0  0
 11 15  2  0     0  0
 11 16  1  0     0  0
 12 17  2  0     0  0
 12 22  1  0     0  0
 13 18  2  0     0  0
 13 19  1  0     0  0
 13 24  1  0     0  0
 14 20  1  0     0  0
 15 18  1  0     0  0
 16 19  2  0     0  0
 17 21  1  0     0  0
 20 21  2  0     0  0
 25 26  2  0     0  0
 26 27  1  0     0  0
 27 28  1  0     0  0
M  END
> <standard_type>
pIC50

> <# Confs.>
25

> <canonical_smiles>
ClC(N=C1/C=C/CC)=C(CO)N1CC2=CC=C(C3=CC=CC=C3C(O)=O)C=C2

> <standard_relation>
=

> <Publication_ID>
nan

> <predicted_activity_value>
7.0

> <actual_activity_value>
7.096910013008056

> <Compound>
6

> <standard_units>
nM

> hash
11452218105267670370

$$$$
5
XXILIB    08252103503D 0   0.00000     0.00000

 28 30  0     1  0            999 V2000
    4.9767   -1.5665    0.1556 Cl  0  0  0  0  0  1           0  0  0
   -2.0073    3.3018    5.2105 O   0  0  0  0  0  2           0  0  0
   -4.0668    2.5488    4.6334 O   0  0  0  0  0  2           0  0  0
    0.6515   -2.5957    0.9410 O   0  0  0  0  0  2           0  0  0
    1.4552   -0.0000   -0.0000 N   0  0  0  0  0  3           0  0  0
    3.5567    0.7165    0.0626 N   0  0  0  0  0  3           0  0  0
    3.5404   -0.6520    0.0830 C   0  0  0  0  0  4           0  0  0
    2.2952    1.1045    0.0000 C   0  0  0  0  0  4           0  0  0
    2.2476   -1.1344    0.0369 C   0  0  0  0  0  4           0  0  0
   -2.1276    0.0306    5.3896 C   0  0  0  0  0  4           0  0  0
   -1.5868    0.0219    4.0243 C   0  0  0  0  0  4           0  0  0
   -2.6856    1.1746    6.0021 C   0  0  0  0  0  4           0  0  0
   -0.5420    0.0000    1.3967 C   0  0  0  0  0  4           0  0  0
   -2.0717   -1.1498    6.1584 C   0  0  0  0  0  4           0  0  0
   -0.5204    0.8613    3.6691 C   0  0  0  0  0  4           0  0  0
   -2.1258   -0.8250    3.0446 C   0  0  0  0  0  4           0  0  0
   -3.1570    1.1327    7.3240 C   0  0  0  0  0  4           0  0  0
   -0.0055    0.8522    2.3697 C   0  0  0  0  0  4           0  0  0
   -1.6113   -0.8342    1.7450 C   0  0  0  0  0  4           0  0  0
   -2.5394   -1.1893    7.4745 C   0  0  0  0  0  4           0  0  0
   -3.0781   -0.0479    8.0574 C   0  0  0  0  0  4           0  0  0
   -2.8695    2.4360    5.2551 C   0  0  0  0  0  4           0  0  0
    1.7359   -2.5214    0.0253 C   0  0  0  0  0  4           0  0  0
    0.0000    0.0000    0.0000 C   0  0  0  0  0  4           0  0  0
    1.7776    2.4166   -0.0687 C   0  0  0  0  0  4           0  0  0
    2.3297    3.5207    0.4589 C   0  0  0  0  0  4           0  0  0
    3.6255    3.6853    1.1910 C   0  0  0  0  0  4           0  0  0
    3.4476    3.4907    2.6888 C   0  0  0  0  0  4           0  0  0
  1  7  1  0     0  0
  2 22  2  0     0  0
  3 22  1  0     0  0
  4 23  1  0     0  0
  5  8  1  0     0  0
  5  9  1  0     0  0
  5 24  1  0     0  0
  6  7  1  0     0  0
  6  8  2  0     0  0
  7  9  2  0     0  0
  8 25  1  0     0  0
  9 23  1  0     0  0
 10 11  1  0     0  0
 10 12  1  0     0  0
 10 14  2  0     0  0
 11 15  2  0     0  0
 11 16  1  0     0  0
 12 17  2  0     0  0
 12 22  1  0     0  0
 13 18  2  0     0  0
 13 19  1  0     0  0
 13 24  1  0     0  0
 14 20  1  0     0  0
 15 18  1  0     0  0
 16 19  2  0     0  0
 17 21  1  0     0  0
 20 21  2  0     0  0
 25 26  2  0     0  0
 26 27  1  0     0  0
 27 28  1  0     0  0
M  END
> <standard_type>
pIC50

> <# Confs.>
25

> <canonical_smiles>
ClC(N=C1/C=C/CC)=C(CO)N1CC2=CC=C(C3=CC=CC=C3C(O)=O)C=C2

> <standard_relation>
=

> <Publication_ID>
nan

> <predicted_activity_value>
7.0

> <actual_activity_value>
7.096910013008056

> <Compound>
6

> <standard_units>
nM

> hash
11452218105267670370

$$$$
5
XXILIB    08252103503D 0   0.00000     0.00000

 28 30  0     1  0            999 V2000
    4.9767   -1.5665    0.1556 Cl  0  0  0  0  0  1           0  0  0
   -2.0073    3.3018    5.2105 O   0  0  0  0  0  2           0  0  0
   -4.0668    2.5488    4.6334 O   0  0  0  0  0  2           0  0  0
    0.6515   -2.5957    0.9410 O   0  0  0  0  0  2           0  0  0
    1.4552   -0.0000   -0.0000 N   0  0  0  0  0  3           0  0  0
    3.5567    0.7165    0.0626 N   0  0  0  0  0  3           0  0  0
    3.5404   -0.6520    0.0830 C   0  0  0  0  0  4           0  0  0
    2.2952    1.1045    0.0000 C   0  0  0  0  0  4           0  0  0
    2.2476   -1.1344    0.0369 C   0  0  0  0  0  4           0  0  0
   -2.1276    0.0306    5.3896 C   0  0  0  0  0  4           0  0  0
   -1.5868    0.0219    4.0243 C   0  0  0  0  0  4           0  0  0
   -2.6856    1.1746    6.0021 C   0  0  0  0  0  4           0  0  0
   -0.5420    0.0000    1.3967 C   0  0  0  0  0  4           0  0  0
   -2.0717   -1.1498    6.1584 C   0  0  0  0  0  4           0  0  0
   -0.5204    0.8613    3.6691 C   0  0  0  0  0  4           0  0  0
   -2.1258   -0.8250    3.0446 C   0  0  0  0  0  4           0  0  0
   -3.1570    1.1327    7.3240 C   0  0  0  0  0  4           0  0  0
   -0.0055    0.8522    2.3697 C   0  0  0  0  0  4           0  0  0
   -1.6113   -0.8342    1.7450 C   0  0  0  0  0  4           0  0  0
   -2.5394   -1.1893    7.4745 C   0  0  0  0  0  4           0  0  0
   -3.0781   -0.0479    8.0574 C   0  0  0  0  0  4           0  0  0
   -2.8695    2.4360    5.2551 C   0  0  0  0  0  4           0  0  0
    1.7359   -2.5214    0.0253 C   0  0  0  0  0  4           0  0  0
    0.0000    0.0000    0.0000 C   0  0  0  0  0  4           0  0  0
    1.7776    2.4166   -0.0687 C   0  0  0  0  0  4           0  0  0
    2.3297    3.5207    0.4589 C   0  0  0  0  0  4           0  0  0
    3.6255    3.6853    1.1910 C   0  0  0  0  0  4           0  0  0
    4.7673    4.0022    0.2378 C   0  0  0  0  0  4           0  0  0
  1  7  1  0     0  0
  2 22  2  0     0  0
  3 22  1  0     0  0
  4 23  1  0     0  0
  5  8  1  0     0  0
  5  9  1  0     0  0
  5 24  1  0     0  0
  6  7  1  0     0  0
  6  8  2  0     0  0
  7  9  2  0     0  0
  8 25  1  0     0  0
  9 23  1  0     0  0
 10 11  1  0     0  0
 10 12  1  0     0  0
 10 14  2  0     0  0
 11 15  2  0     0  0
 11 16  1  0     0  0
 12 17  2  0     0  0
 12 22  1  0     0  0
 13 18  2  0     0  0
 13 19  1  0     0  0
 13 24  1  0     0  0
 14 20  1  0     0  0
 15 18  1  0     0  0
 16 19  2  0     0  0
 17 21  1  0     0  0
 20 21  2  0     0  0
 25 26  2  0     0  0
 26 27  1  0     0  0
 27 28  1  0     0  0
M  END
> <standard_type>
pIC50

> <# Confs.>
25

> <canonical_smiles>
ClC(N=C1/C=C/CC)=C(CO)N1CC2=CC=C(C3=CC=CC=C3C(O)=O)C=C2

> <standard_relation>
=

> <Publication_ID>
nan

> <predicted_activity_value>
7.0

> <actual_activity_value>
7.096910013008056

> <Compound>
6

> <standard_units>
nM

> hash
11452218105267670370

$$$$
5
XXILIB    08252103503D 0   0.00000     0.00000

 28 30  0     1  0            999 V2000
    4.9767   -1.5665    0.1556 Cl  0  0  0  0  0  1           0  0  0
    0.1472   -2.3445    6.0466 O   0  0  0  0  0  2           0  0  0
    0.9792   -0.3067    6.5917 O   0  0  0  0  0  2           0  0  0
    1.5326   -2.9244    1.3730 O   0  0  0  0  0  2           0  0  0
    1.4552   -0.0000   -0.0000 N   0  0  0  0  0  3           0  0  0
    3.5567    0.7165    0.0626 N   0  0  0  0  0  3           0  0  0
    3.5404   -0.6520    0.0830 C   0  0  0  0  0  4           0  0  0
    2.2952    1.1045    0.0000 C   0  0  0  0  0  4           0  0  0
    2.2476   -1.1344    0.0369 C   0  0  0  0  0  4           0  0  0
   -2.0541    0.0021    5.4181 C   0  0  0  0  0  4           0  0  0
   -1.5352    0.0010    4.0443 C   0  0  0  0  0  4           0  0  0
   -1.3828   -0.5957    6.5077 C   0  0  0  0  0  4           0  0  0
   -0.5420    0.0000    1.3967 C   0  0  0  0  0  4           0  0  0
   -3.3019    0.6032    5.6810 C   0  0  0  0  0  4           0  0  0
   -1.2932   -1.2047    3.3692 C   0  0  0  0  0  4           0  0  0
   -1.2687    1.2058    3.3772 C   0  0  0  0  0  4           0  0  0
   -1.9435   -0.5935    7.7949 C   0  0  0  0  0  4           0  0  0
   -0.8000   -1.2052    2.0614 C   0  0  0  0  0  4           0  0  0
   -0.7753    1.2056    2.0695 C   0  0  0  0  0  4           0  0  0
   -3.8596    0.6028    6.9622 C   0  0  0  0  0  4           0  0  0
   -3.1822    0.0016    8.0170 C   0  0  0  0  0  4           0  0  0
   -0.0322   -1.1754    6.3563 C   0  0  0  0  0  4           0  0  0
    1.7359   -2.5214    0.0253 C   0  0  0  0  0  4           0  0  0
   -0.0000    0.0000    0.0000 C   0  0  0  0  0  4           0  0  0
    1.7776    2.4166   -0.0687 C   0  0  0  0  0  4           0  0  0
    2.3297    3.5207    0.4589 C   0  0  0  0  0  4           0  0  0
    3.6255    3.6853    1.1910 C   0  0  0  0  0  4           0  0  0
    3.4476    3.4907    2.6888 C   0  0  0  0  0  4           0  0  0
  1  7  1  0     0  0
  2 22  2  0     0  0
  3 22  1  0     0  0
  4 23  1  0     0  0
  5  8  1  0     0  0
  5  9  1  0     0  0
  5 24  1  0     0  0
  6  7  1  0     0  0
  6  8  2  0     0  0
  7  9  2  0     0  0
  8 25  1  0     0  0
  9 23  1  0     0  0
 10 11  1  0     0  0
 10 12  1  0     0  0
 10 14  2  0     0  0
 11 15  2  0     0  0
 11 16  1  0     0  0
 12 17  2  0     0  0
 12 22  1  0     0  0
 13 18  2  0     0  0
 13 19  1  0     0  0
 13 24  1  0     0  0
 14 20  1  0     0  0
 15 18  1  0     0  0
 16 19  2  0     0  0
 17 21  1  0     0  0
 20 21  2  0     0  0
 25 26  2  0     0  0
 26 27  1  0     0  0
 27 28  1  0     0  0
M  END
> <standard_type>
pIC50

> <# Confs.>
25

> <canonical_smiles>
ClC(N=C1/C=C/CC)=C(CO)N1CC2=CC=C(C3=CC=CC=C3C(O)=O)C=C2

> <standard_relation>
=

> <Publication_ID>
nan

> <predicted_activity_value>
7.0

> <actual_activity_value>
7.096910013008056

> <Compound>
6

> <standard_units>
nM

> hash
11452218105267670370

$$$$
5
XXILIB    08252103503D 0   0.00000     0.00000

 28 30  0     1  0            999 V2000
    4.9767    1.5665   -0.1556 Cl  0  0  0  0  0  1           0  0  0
   -1.4270    3.0374    5.0856 O   0  0  0  0  0  2           0  0  0
    0.0936    2.4444    6.6597 O   0  0  0  0  0  2           0  0  0
    1.5326    2.9244   -1.3730 O   0  0  0  0  0  2           0  0  0
    1.4552    0.0000    0.0000 N   0  0  0  0  0  3           0  0  0
    3.5567   -0.7165   -0.0626 N   0  0  0  0  0  3           0  0  0
    3.5404    0.6520   -0.0830 C   0  0  0  0  0  4           0  0  0
    2.2952   -1.1045    0.0000 C   0  0  0  0  0  4           0  0  0
    2.2476    1.1344   -0.0369 C   0  0  0  0  0  4           0  0  0
   -2.0983    0.0453    5.4009 C   0  0  0  0  0  4           0  0  0
   -1.5660    0.0320    4.0324 C   0  0  0  0  0  4           0  0  0
   -1.8206    1.0654    6.3378 C   0  0  0  0  0  4           0  0  0
   -0.5420    0.0000    1.3967 C   0  0  0  0  0  4           0  0  0
   -2.9107   -1.0229    5.8328 C   0  0  0  0  0  4           0  0  0
   -0.1826    0.0134    3.8002 C   0  0  0  0  0  4           0  0  0
   -2.4293    0.0391    2.9268 C   0  0  0  0  0  4           0  0  0
   -2.3302    1.0083    7.6448 C   0  0  0  0  0  4           0  0  0
    0.3236    0.0000    2.4974 C   0  0  0  0  0  4           0  0  0
   -1.9234    0.0259    1.6239 C   0  0  0  0  0  4           0  0  0
   -3.4154   -1.0792    7.1345 C   0  0  0  0  0  4           0  0  0
   -3.1221   -0.0661    8.0403 C   0  0  0  0  0  4           0  0  0
   -1.0524    2.2697    5.9603 C   0  0  0  0  0  4           0  0  0
    1.7359    2.5214   -0.0253 C   0  0  0  0  0  4           0  0  0
    0.0000    0.0000    0.0000 C   0  0  0  0  0  4           0  0  0
    1.7776   -2.4166    0.0687 C   0  0  0  0  0  4           0  0  0
    2.4885   -3.5554    0.0758 C   0  0  0  0  0  4           0  0  0
    3.9724   -3.7560    0.0716 C   0  0  0  0  0  4           0  0  0
    4.5300   -3.8183    1.4851 C   0  0  0  0  0  4           0  0  0
  1  7  1  0     0  0
  2 22  2  0     0  0
  3 22  1  0     0  0
  4 23  1  0     0  0
  5  8  1  0     0  0
  5  9  1  0     0  0
  5 24  1  0     0  0
  6  7  1  0     0  0
  6  8  2  0     0  0
  7  9  2  0     0  0
  8 25  1  0     0  0
  9 23  1  0     0  0
 10 11  1  0     0  0
 10 12  1  0     0  0
 10 14  2  0     0  0
 11 15  2  0     0  0
 11 16  1  0     0  0
 12 17  2  0     0  0
 12 22  1  0     0  0
 13 18  2  0     0  0
 13 19  1  0     0  0
 13 24  1  0     0  0
 14 20  1  0     0  0
 15 18  1  0     0  0
 16 19  2  0     0  0
 17 21  1  0     0  0
 20 21  2  0     0  0
 25 26  2  0     0  0
 26 27  1  0     0  0
 27 28  1  0     0  0
M  END
> <standard_type>
pIC50

> <# Confs.>
25

> <canonical_smiles>
ClC(N=C1/C=C/CC)=C(CO)N1CC2=CC=C(C3=CC=CC=C3C(O)=O)C=C2

> <standard_relation>
=

> <Publication_ID>
nan

> <predicted_activity_value>
7.0

> <actual_activity_value>
7.096910013008056

> <Compound>
6

> <standard_units>
nM

> hash
11452218105267670370

$$$$
5
XXILIB    08252103503D 0   0.00000     0.00000

 28 30  0     1  0            999 V2000
    4.9767   -1.5665    0.1556 Cl  0  0  0  0  0  1           0  0  0
    0.1472   -2.3445    6.0466 O   0  0  0  0  0  2           0  0  0
    0.9792   -0.3067    6.5917 O   0  0  0  0  0  2           0  0  0
    1.5326   -2.9244    1.3730 O   0  0  0  0  0  2           0  0  0
    1.4552   -0.0000   -0.0000 N   0  0  0  0  0  3           0  0  0
    3.5567    0.7165    0.0626 N   0  0  0  0  0  3           0  0  0
    3.5404   -0.6520    0.0830 C   0  0  0  0  0  4           0  0  0
    2.2952    1.1045    0.0000 C   0  0  0  0  0  4           0  0  0
    2.2476   -1.1344    0.0369 C   0  0  0  0  0  4           0  0  0
   -2.0541    0.0021    5.4181 C   0  0  0  0  0  4           0  0  0
   -1.5352    0.0010    4.0443 C   0  0  0  0  0  4           0  0  0
   -1.3828   -0.5957    6.5077 C   0  0  0  0  0  4           0  0  0
   -0.5420    0.0000    1.3967 C   0  0  0  0  0  4           0  0  0
   -3.3019    0.6032    5.6810 C   0  0  0  0  0  4           0  0  0
   -1.2932   -1.2047    3.3692 C   0  0  0  0  0  4           0  0  0
   -1.2687    1.2058    3.3772 C   0  0  0  0  0  4           0  0  0
   -1.9435   -0.5935    7.7949 C   0  0  0  0  0  4           0  0  0
   -0.8000   -1.2052    2.0614 C   0  0  0  0  0  4           0  0  0
   -0.7753    1.2056    2.0695 C   0  0  0  0  0  4           0  0  0
   -3.8596    0.6028    6.9622 C   0  0  0  0  0  4           0  0  0
   -3.1822    0.0016    8.0170 C   0  0  0  0  0  4           0  0  0
   -0.0322   -1.1754    6.3563 C   0  0  0  0  0  4           0  0  0
    1.7359   -2.5214    0.0253 C   0  0  0  0  0  4           0  0  0
   -0.0000    0.0000    0.0000 C   0  0  0  0  0  4           0  0  0
    1.7776    2.4166   -0.0687 C   0  0  0  0  0  4           0  0  0
    2.3297    3.5207    0.4589 C   0  0  0  0  0  4           0  0  0
    3.6255    3.6853    1.1910 C   0  0  0  0  0  4           0  0  0
    4.7673    4.0022    0.2378 C   0  0  0  0  0  4           0  0  0
  1  7  1  0     0  0
  2 22  2  0     0  0
  3 22  1  0     0  0
  4 23  1  0     0  0
  5  8  1  0     0  0
  5  9  1  0     0  0
  5 24  1  0     0  0
  6  7  1  0     0  0
  6  8  2  0     0  0
  7  9  2  0     0  0
  8 25  1  0     0  0
  9 23  1  0     0  0
 10 11  1  0     0  0
 10 12  1  0     0  0
 10 14  2  0     0  0
 11 15  2  0     0  0
 11 16  1  0     0  0
 12 17  2  0     0  0
 12 22  1  0     0  0
 13 18  2  0     0  0
 13 19  1  0     0  0
 13 24  1  0     0  0
 14 20  1  0     0  0
 15 18  1  0     0  0
 16 19  2  0     0  0
 17 21  1  0     0  0
 20 21  2  0     0  0
 25 26  2  0     0  0
 26 27  1  0     0  0
 27 28  1  0     0  0
M  END
> <standard_type>
pIC50

> <# Confs.>
25

> <canonical_smiles>
ClC(N=C1/C=C/CC)=C(CO)N1CC2=CC=C(C3=CC=CC=C3C(O)=O)C=C2

> <standard_relation>
=

> <Publication_ID>
nan

> <predicted_activity_value>
7.0

> <actual_activity_value>
7.096910013008056

> <Compound>
6

> <standard_units>
nM

> hash
11452218105267670370

$$$$
5
XXILIB    08252103503D 0   0.00000     0.00000

 28 30  0     1  0            999 V2000
    4.9767    1.5665   -0.1556 Cl  0  0  0  0  0  1           0  0  0
   -3.1113   -2.7923    4.4321 O   0  0  0  0  0  2           0  0  0
   -5.0896   -1.7033    4.6378 O   0  0  0  0  0  2           0  0  0
    1.5326    2.9244   -1.3730 O   0  0  0  0  0  2           0  0  0
    1.4552    0.0000    0.0000 N   0  0  0  0  0  3           0  0  0
    3.5567   -0.7165   -0.0626 N   0  0  0  0  0  3           0  0  0
    3.5404    0.6520   -0.0830 C   0  0  0  0  0  4           0  0  0
    2.2952   -1.1045    0.0000 C   0  0  0  0  0  4           0  0  0
    2.2476    1.1344   -0.0369 C   0  0  0  0  0  4           0  0  0
   -2.1248   -0.0336    5.3906 C   0  0  0  0  0  4           0  0  0
   -1.5855   -0.0233    4.0248 C   0  0  0  0  0  4           0  0  0
   -3.1913   -0.8626    5.8037 C   0  0  0  0  0  4           0  0  0
   -0.5420    0.0000    1.3967 C   0  0  0  0  0  4           0  0  0
   -1.5813    0.8441    6.3508 C   0  0  0  0  0  4           0  0  0
   -2.1086    0.8424    3.0527 C   0  0  0  0  0  4           0  0  0
   -0.5360   -0.8803    3.6616 C   0  0  0  0  0  4           0  0  0
   -3.6887   -0.8052    7.1155 C   0  0  0  0  0  4           0  0  0
   -1.5945    0.8522    1.7530 C   0  0  0  0  0  4           0  0  0
   -0.0218   -0.8708    2.3619 C   0  0  0  0  0  4           0  0  0
   -2.0787    0.9014    7.6552 C   0  0  0  0  0  4           0  0  0
   -3.1339    0.0799    8.0356 C   0  0  0  0  0  4           0  0  0
   -3.7729   -1.8771    4.9006 C   0  0  0  0  0  4           0  0  0
    1.7359    2.5214   -0.0253 C   0  0  0  0  0  4           0  0  0
    0.0000    0.0000    0.0000 C   0  0  0  0  0  4           0  0  0
    1.7776   -2.4166    0.0687 C   0  0  0  0  0  4           0  0  0
    2.3786   -3.4835    0.6190 C   0  0  0  0  0  4           0  0  0
    3.6881   -3.5774    1.3392 C   0  0  0  0  0  4           0  0  0
    4.8306   -3.8755    0.3808 C   0  0  0  0  0  4           0  0  0
  1  7  1  0     0  0
  2 22  2  0     0  0
  3 22  1  0     0  0
  4 23  1  0     0  0
  5  8  1  0     0  0
  5  9  1  0     0  0
  5 24  1  0     0  0
  6  7  1  0     0  0
  6  8  2  0     0  0
  7  9  2  0     0  0
  8 25  1  0     0  0
  9 23  1  0     0  0
 10 11  1  0     0  0
 10 12  1  0     0  0
 10 14  2  0     0  0
 11 15  2  0     0  0
 11 16  1  0     0  0
 12 17  2  0     0  0
 12 22  1  0     0  0
 13 18  2  0     0  0
 13 19  1  0     0  0
 13 24  1  0     0  0
 14 20  1  0     0  0
 15 18  1  0     0  0
 16 19  2  0     0  0
 17 21  1  0     0  0
 20 21  2  0     0  0
 25 26  2  0     0  0
 26 27  1  0     0  0
 27 28  1  0     0  0
M  END
> <standard_type>
pIC50

> <# Confs.>
25

> <canonical_smiles>
ClC(N=C1/C=C/CC)=C(CO)N1CC2=CC=C(C3=CC=CC=C3C(O)=O)C=C2

> <standard_relation>
=

> <Publication_ID>
nan

> <predicted_activity_value>
7.0

> <actual_activity_value>
7.096910013008056

> <Compound>
6

> <standard_units>
nM

> hash
11452218105267670370

$$$$
5
XXILIB    08252103503D 0   0.00000     0.00000

 28 30  0     1  0            999 V2000
    4.9767   -1.2177   -0.9976 Cl  0  0  0  0  0  1           0  0  0
   -5.0983    0.0139    4.0109 O   0  0  0  0  0  2           0  0  0
   -4.4712   -2.1150    4.4765 O   0  0  0  0  0  2           0  0  0
    1.5326   -3.0387   -1.0970 O   0  0  0  0  0  2           0  0  0
    1.4552   -0.0000   -0.0000 N   0  0  0  0  0  3           0  0  0
    3.5567    0.4624    0.5509 N   0  0  0  0  0  3           0  0  0
    3.5404   -0.5197   -0.4024 C   0  0  0  0  0  4           0  0  0
    2.2952    0.7810    0.7810 C   0  0  0  0  0  4           0  0  0
    2.2476   -0.8283   -0.7761 C   0  0  0  0  0  4           0  0  0
   -2.1248   -0.0336    5.3906 C   0  0  0  0  0  4           0  0  0
   -1.5855   -0.0233    4.0248 C   0  0  0  0  0  4           0  0  0
   -3.4710   -0.3321    5.6973 C   0  0  0  0  0  4           0  0  0
   -0.5420    0.0000    1.3967 C   0  0  0  0  0  4           0  0  0
   -1.2764    0.2968    6.4670 C   0  0  0  0  0  4           0  0  0
   -2.1086    0.8424    3.0527 C   0  0  0  0  0  4           0  0  0
   -0.5360   -0.8803    3.6616 C   0  0  0  0  0  4           0  0  0
   -3.9395   -0.2933    7.0203 C   0  0  0  0  0  4           0  0  0
   -1.5945    0.8522    1.7530 C   0  0  0  0  0  4           0  0  0
   -0.0218   -0.8708    2.3619 C   0  0  0  0  0  4           0  0  0
   -1.7447    0.3369    7.7829 C   0  0  0  0  0  4           0  0  0
   -3.0759    0.0456    8.0583 C   0  0  0  0  0  4           0  0  0
   -4.4191   -0.7738    4.6537 C   0  0  0  0  0  4           0  0  0
    1.7359   -1.8008   -1.7650 C   0  0  0  0  0  4           0  0  0
    0.0000    0.0000    0.0000 C   0  0  0  0  0  4           0  0  0
    1.7776    1.7574    1.6602 C   0  0  0  0  0  4           0  0  0
    2.3297    2.1650    2.8140 C   0  0  0  0  0  4           0  0  0
    3.6255    1.7637    3.4480 C   0  0  0  0  0  4           0  0  0
    4.7673    2.6618    2.9981 C   0  0  0  0  0  4           0  0  0
  1  7  1  0     0  0
  2 22  2  0     0  0
  3 22  1  0     0  0
  4 23  1  0     0  0
  5  8  1  0     0  0
  5  9  1  0     0  0
  5 24  1  0     0  0
  6  7  1  0     0  0
  6  8  2  0     0  0
  7  9  2  0     0  0
  8 25  1  0     0  0
  9 23  1  0     0  0
 10 11  1  0     0  0
 10 12  1  0     0  0
 10 14  2  0     0  0
 11 15  2  0     0  0
 11 16  1  0     0  0
 12 17  2  0     0  0
 12 22  1  0     0  0
 13 18  2  0     0  0
 13 19  1  0     0  0
 13 24  1  0     0  0
 14 20  1  0     0  0
 15 18  1  0     0  0
 16 19  2  0     0  0
 17 21  1  0     0  0
 20 21  2  0     0  0
 25 26  2  0     0  0
 26 27  1  0     0  0
 27 28  1  0     0  0
M  END
> <standard_type>
pIC50

> <# Confs.>
25

> <canonical_smiles>
ClC(N=C1/C=C/CC)=C(CO)N1CC2=CC=C(C3=CC=CC=C3C(O)=O)C=C2

> <standard_relation>
=

> <Publication_ID>
nan

> <predicted_activity_value>
7.0

> <actual_activity_value>
7.096910013008056

> <Compound>
6

> <standard_units>
nM

> hash
11452218105267670370

$$$$
5
XXILIB    08252103503D 0   0.00000     0.00000

 28 30  0     1  0            999 V2000
    4.9767    1.5665   -0.1556 Cl  0  0  0  0  0  1           0  0  0
   -3.1113   -2.7923    4.4321 O   0  0  0  0  0  2           0  0  0
   -5.0896   -1.7033    4.6378 O   0  0  0  0  0  2           0  0  0
    1.5326    2.9244   -1.3730 O   0  0  0  0  0  2           0  0  0
    1.4552    0.0000    0.0000 N   0  0  0  0  0  3           0  0  0
    3.5567   -0.7165   -0.0626 N   0  0  0  0  0  3           0  0  0
    3.5404    0.6520   -0.0830 C   0  0  0  0  0  4           0  0  0
    2.2952   -1.1045    0.0000 C   0  0  0  0  0  4           0  0  0
    2.2476    1.1344   -0.0369 C   0  0  0  0  0  4           0  0  0
   -2.1248   -0.0336    5.3906 C   0  0  0  0  0  4           0  0  0
   -1.5855   -0.0233    4.0248 C   0  0  0  0  0  4           0  0  0
   -3.1913   -0.8626    5.8037 C   0  0  0  0  0  4           0  0  0
   -0.5420    0.0000    1.3967 C   0  0  0  0  0  4           0  0  0
   -1.5813    0.8441    6.3508 C   0  0  0  0  0  4           0  0  0
   -2.1086    0.8424    3.0527 C   0  0  0  0  0  4           0  0  0
   -0.5360   -0.8803    3.6616 C   0  0  0  0  0  4           0  0  0
   -3.6887   -0.8052    7.1155 C   0  0  0  0  0  4           0  0  0
   -1.5945    0.8522    1.7530 C   0  0  0  0  0  4           0  0  0
   -0.0218   -0.8708    2.3619 C   0  0  0  0  0  4           0  0  0
   -2.0787    0.9014    7.6552 C   0  0  0  0  0  4           0  0  0
   -3.1339    0.0799    8.0356 C   0  0  0  0  0  4           0  0  0
   -3.7729   -1.8771    4.9006 C   0  0  0  0  0  4           0  0  0
    1.7359    2.5214   -0.0253 C   0  0  0  0  0  4           0  0  0
    0.0000    0.0000    0.0000 C   0  0  0  0  0  4           0  0  0
    1.7776   -2.4166    0.0687 C   0  0  0  0  0  4           0  0  0
    2.3786   -3.4835    0.6190 C   0  0  0  0  0  4           0  0  0
    3.6881   -3.5774    1.3392 C   0  0  0  0  0  4           0  0  0
    3.5195   -3.3491    2.8333 C   0  0  0  0  0  4           0  0  0
  1  7  1  0     0  0
  2 22  2  0     0  0
  3 22  1  0     0  0
  4 23  1  0     0  0
  5  8  1  0     0  0
  5  9  1  0     0  0
  5 24  1  0     0  0
  6  7  1  0     0  0
  6  8  2  0     0  0
  7  9  2  0     0  0
  8 25  1  0     0  0
  9 23  1  0     0  0
 10 11  1  0     0  0
 10 12  1  0     0  0
 10 14  2  0     0  0
 11 15  2  0     0  0
 11 16  1  0     0  0
 12 17  2  0     0  0
 12 22  1  0     0  0
 13 18  2  0     0  0
 13 19  1  0     0  0
 13 24  1  0     0  0
 14 20  1  0     0  0
 15 18  1  0     0  0
 16 19  2  0     0  0
 17 21  1  0     0  0
 20 21  2  0     0  0
 25 26  2  0     0  0
 26 27  1  0     0  0
 27 28  1  0     0  0
M  END
> <standard_type>
pIC50

> <# Confs.>
25

> <canonical_smiles>
ClC(N=C1/C=C/CC)=C(CO)N1CC2=CC=C(C3=CC=CC=C3C(O)=O)C=C2

> <standard_relation>
=

> <Publication_ID>
nan

> <predicted_activity_value>
7.0

> <actual_activity_value>
7.096910013008056

> <Compound>
6

> <standard_units>
nM

> hash
11452218105267670370

$$$$
5
XXILIB    08252103503D 0   0.00000     0.00000

 28 30  0     1  0            999 V2000
    4.9767   -1.5665    0.1556 Cl  0  0  0  0  0  1           0  0  0
    0.9168    0.3640    6.5589 O   0  0  0  0  0  2           0  0  0
    0.4241   -1.8246    6.2289 O   0  0  0  0  0  2           0  0  0
    0.6515   -2.5957    0.9410 O   0  0  0  0  0  2           0  0  0
    1.4552   -0.0000   -0.0000 N   0  0  0  0  0  3           0  0  0
    3.5567    0.7165    0.0626 N   0  0  0  0  0  3           0  0  0
    3.5404   -0.6520    0.0830 C   0  0  0  0  0  4           0  0  0
    2.2952    1.1045    0.0000 C   0  0  0  0  0  4           0  0  0
    2.2476   -1.1344    0.0369 C   0  0  0  0  0  4           0  0  0
   -2.1276    0.0306    5.3896 C   0  0  0  0  0  4           0  0  0
   -1.5868    0.0219    4.0243 C   0  0  0  0  0  4           0  0  0
   -1.3625   -0.2807    6.5354 C   0  0  0  0  0  4           0  0  0
   -0.5420    0.0000    1.3967 C   0  0  0  0  0  4           0  0  0
   -3.4895    0.3365    5.5873 C   0  0  0  0  0  4           0  0  0
   -0.5204    0.8613    3.6691 C   0  0  0  0  0  4           0  0  0
   -2.1258   -0.8250    3.0446 C   0  0  0  0  0  4           0  0  0
   -1.9420   -0.2894    7.8143 C   0  0  0  0  0  4           0  0  0
   -0.0055    0.8522    2.3697 C   0  0  0  0  0  4           0  0  0
   -1.6113   -0.8342    1.7450 C   0  0  0  0  0  4           0  0  0
   -4.0652    0.3254    6.8605 C   0  0  0  0  0  4           0  0  0
   -3.2925    0.0091    7.9721 C   0  0  0  0  0  4           0  0  0
    0.0910   -0.5306    6.4467 C   0  0  0  0  0  4           0  0  0
    1.7359   -2.5214    0.0253 C   0  0  0  0  0  4           0  0  0
    0.0000    0.0000    0.0000 C   0  0  0  0  0  4           0  0  0
    1.7776    2.4166   -0.0687 C   0  0  0  0  0  4           0  0  0
    2.3297    3.5207    0.4589 C   0  0  0  0  0  4           0  0  0
    3.6255    3.6853    1.1910 C   0  0  0  0  0  4           0  0  0
    3.4476    3.4907    2.6888 C   0  0  0  0  0  4           0  0  0
  1  7  1  0     0  0
  2 22  2  0     0  0
  3 22  1  0     0  0
  4 23  1  0     0  0
  5  8  1  0     0  0
  5  9  1  0     0  0
  5 24  1  0     0  0
  6  7  1  0     0  0
  6  8  2  0     0  0
  7  9  2  0     0  0
  8 25  1  0     0  0
  9 23  1  0     0  0
 10 11  1  0     0  0
 10 12  1  0     0  0
 10 14  2  0     0  0
 11 15  2  0     0  0
 11 16  1  0     0  0
 12 17  2  0     0  0
 12 22  1  0     0  0
 13 18  2  0     0  0
 13 19  1  0     0  0
 13 24  1  0     0  0
 14 20  1  0     0  0
 15 18  1  0     0  0
 16 19  2  0     0  0
 17 21  1  0     0  0
 20 21  2  0     0  0
 25 26  2  0     0  0
 26 27  1  0     0  0
 27 28  1  0     0  0
M  END
> <standard_type>
pIC50

> <# Confs.>
25

> <canonical_smiles>
ClC(N=C1/C=C/CC)=C(CO)N1CC2=CC=C(C3=CC=CC=C3C(O)=O)C=C2

> <standard_relation>
=

> <Publication_ID>
nan

> <predicted_activity_value>
7.0

> <actual_activity_value>
7.096910013008056

> <Compound>
6

> <standard_units>
nM

> hash
11452218105267670370

$$$$
7
XXILIB    08252103503D 0   0.00000     0.00000

 29 31  0     1  0            999 V2000
    5.0074   -1.4914   -0.0122 Cl  0  0  0  0  0  1           0  0  0
   -4.6018   -1.0254    3.9373 O   0  0  0  0  0  2           0  0  0
    0.7380   -2.5888   -0.9589 O   0  0  0  0  0  2           0  0  0
   -5.2861    0.9787    4.7809 O   0  0  0  0  0  2           0  0  0
    1.4523   -0.0000   -0.0000 N   0  0  0  0  0  3           0  0  0
    3.5393    0.7630   -0.0025 N   0  0  0  0  0  3           0  0  0
    3.5500   -0.6068   -0.0019 C   0  0  0  0  0  4           0  0  0
    2.2690    1.1150    0.0000 C   0  0  0  0  0  4           0  0  0
    2.2653   -1.1171    0.0044 C   0  0  0  0  0  4           0  0  0
   -2.0446   -0.0040    5.4234 C   0  0  0  0  0  4           0  0  0
   -1.5306   -0.0017    4.0471 C   0  0  0  0  0  4           0  0  0
   -3.4195   -0.0176    5.7457 C   0  0  0  0  0  4           0  0  0
   -0.5425    0.0000    1.3966 C   0  0  0  0  0  4           0  0  0
   -1.1355    0.0384    6.4998 C   0  0  0  0  0  4           0  0  0
   -1.2915    1.2039    3.3707 C   0  0  0  0  0  4           0  0  0
   -1.2647   -1.2060    3.3790 C   0  0  0  0  0  4           0  0  0
   -3.8595    0.0384    7.0761 C   0  0  0  0  0  4           0  0  0
   -0.8009    1.2048    2.0617 C   0  0  0  0  0  4           0  0  0
   -0.7743   -1.2055    2.0702 C   0  0  0  0  0  4           0  0  0
   -1.5732    0.0806    7.8271 C   0  0  0  0  0  4           0  0  0
   -2.9337    0.0847    8.1141 C   0  0  0  0  0  4           0  0  0
   -4.4774   -0.1029    4.7248 C   0  0  0  0  0  4           0  0  0
    1.7788   -2.5157    0.0058 C   0  0  0  0  0  4           0  0  0
    0.1768   -3.8913   -1.0604 C   0  0  0  0  0  4           0  0  0
    0.0000    0.0000    0.0000 C   0  0  0  0  0  4           0  0  0
    1.7865    2.5211   -0.0017 C   0  0  0  0  0  4           0  0  0
    2.5423    3.3936   -0.9988 C   0  0  0  0  0  4           0  0  0
    2.4340    2.9263   -2.4506 C   0  0  0  0  0  4           0  0  0
    3.1988    3.8184   -3.4171 C   0  0  0  0  0  4           0  0  0
  1  7  1  0     0  0
  2 22  2  0     0  0
  3 23  1  0     0  0
  3 24  1  0     0  0
  4 22  1  0     0  0
  5  8  1  0     0  0
  5  9  1  0     0  0
  5 25  1  0     0  0
  6  7  1  0     0  0
  6  8  2  0     0  0
  7  9  2  0     0  0
  8 26  1  0     0  0
  9 23  1  0     0  0
 10 11  1  0     0  0
 10 12  1  0     0  0
 10 14  2  0     0  0
 11 15  2  0     0  0
 11 16  1  0     0  0
 12 17  2  0     0  0
 12 22  1  0     0  0
 13 18  2  0     0  0
 13 19  1  0     0  0
 13 25  1  0     0  0
 14 20  1  0     0  0
 15 18  1  0     0  0
 16 19  2  0     0  0
 17 21  1  0     0  0
 20 21  2  0     0  0
 26 27  1  0     0  0
 27 28  1  0     0  0
 28 29  1  0     0  0
M  END
> <standard_type>
pIC50

> <# Confs.>
25

> <canonical_smiles>
ClC(N=C1CCCC)=C(COC)N1CC2=CC=C(C3=CC=CC=C3C(O)=O)C=C2

> <standard_relation>
=

> <Publication_ID>
nan

> <predicted_activity_value>
6.920818753952375

> <actual_activity_value>
7.00436480540245

> <Compound>
8

> <standard_units>
nM

> hash
1825488953729453991

$$$$
7
XXILIB    08252103503D 0   0.00000     0.00000

 29 31  0     1  0            999 V2000
    5.0074   -1.4914   -0.0122 Cl  0  0  0  0  0  1           0  0  0
   -4.6431    0.7138    3.8347 O   0  0  0  0  0  2           0  0  0
    0.7380   -2.5888   -0.9589 O   0  0  0  0  0  2           0  0  0
   -5.2363   -1.2057    4.9118 O   0  0  0  0  0  2           0  0  0
    1.4523   -0.0000   -0.0000 N   0  0  0  0  0  3           0  0  0
    3.5393    0.7630   -0.0025 N   0  0  0  0  0  3           0  0  0
    3.5500   -0.6068   -0.0019 C   0  0  0  0  0  4           0  0  0
    2.2690    1.1150    0.0000 C   0  0  0  0  0  4           0  0  0
    2.2653   -1.1171    0.0044 C   0  0  0  0  0  4           0  0  0
   -2.0446   -0.0040    5.4234 C   0  0  0  0  0  4           0  0  0
   -1.5306   -0.0017    4.0471 C   0  0  0  0  0  4           0  0  0
   -3.4195   -0.0176    5.7457 C   0  0  0  0  0  4           0  0  0
   -0.5425    0.0000    1.3966 C   0  0  0  0  0  4           0  0  0
   -1.1355    0.0384    6.4998 C   0  0  0  0  0  4           0  0  0
   -1.2915    1.2039    3.3707 C   0  0  0  0  0  4           0  0  0
   -1.2647   -1.2060    3.3790 C   0  0  0  0  0  4           0  0  0
   -3.8595    0.0384    7.0761 C   0  0  0  0  0  4           0  0  0
   -0.8009    1.2048    2.0617 C   0  0  0  0  0  4           0  0  0
   -0.7743   -1.2055    2.0702 C   0  0  0  0  0  4           0  0  0
   -1.5732    0.0806    7.8271 C   0  0  0  0  0  4           0  0  0
   -2.9337    0.0847    8.1141 C   0  0  0  0  0  4           0  0  0
   -4.4774   -0.1029    4.7248 C   0  0  0  0  0  4           0  0  0
    1.7788   -2.5157    0.0058 C   0  0  0  0  0  4           0  0  0
    0.1768   -3.8913   -1.0604 C   0  0  0  0  0  4           0  0  0
    0.0000    0.0000    0.0000 C   0  0  0  0  0  4           0  0  0
    1.7865    2.5211   -0.0017 C   0  0  0  0  0  4           0  0  0
    2.5423    3.3936   -0.9988 C   0  0  0  0  0  4           0  0  0
    2.4340    2.9263   -2.4506 C   0  0  0  0  0  4           0  0  0
    3.1988    3.8184   -3.4171 C   0  0  0  0  0  4           0  0  0
  1  7  1  0     0  0
  2 22  2  0     0  0
  3 23  1  0     0  0
  3 24  1  0     0  0
  4 22  1  0     0  0
  5  8  1  0     0  0
  5  9  1  0     0  0
  5 25  1  0     0  0
  6  7  1  0     0  0
  6  8  2  0     0  0
  7  9  2  0     0  0
  8 26  1  0     0  0
  9 23  1  0     0  0
 10 11  1  0     0  0
 10 12  1  0     0  0
 10 14  2  0     0  0
 11 15  2  0     0  0
 11 16  1  0     0  0
 12 17  2  0     0  0
 12 22  1  0     0  0
 13 18  2  0     0  0
 13 19  1  0     0  0
 13 25  1  0     0  0
 14 20  1  0     0  0
 15 18  1  0     0  0
 16 19  2  0     0  0
 17 21  1  0     0  0
 20 21  2  0     0  0
 26 27  1  0     0  0
 27 28  1  0     0  0
 28 29  1  0     0  0
M  END
> <standard_type>
pIC50

> <# Confs.>
25

> <canonical_smiles>
ClC(N=C1CCCC)=C(COC)N1CC2=CC=C(C3=CC=CC=C3C(O)=O)C=C2

> <standard_relation>
=

> <Publication_ID>
nan

> <predicted_activity_value>
6.920818753952375

> <actual_activity_value>
7.00436480540245

> <Compound>
8

> <standard_units>
nM

> hash
1825488953729453991

$$$$
7
XXILIB    08252103503D 0   0.00000     0.00000

 29 31  0     1  0            999 V2000
    5.0074   -1.4914   -0.0122 Cl  0  0  0  0  0  1           0  0  0
   -4.7156    0.5693    3.8976 O   0  0  0  0  0  2           0  0  0
    0.7380   -2.5888   -0.9589 O   0  0  0  0  0  2           0  0  0
   -4.4169    2.4777    5.1081 O   0  0  0  0  0  2           0  0  0
    1.4523   -0.0000   -0.0000 N   0  0  0  0  0  3           0  0  0
    3.5393    0.7630   -0.0025 N   0  0  0  0  0  3           0  0  0
    3.5500   -0.6068   -0.0019 C   0  0  0  0  0  4           0  0  0
    2.2690    1.1150    0.0000 C   0  0  0  0  0  4           0  0  0
    2.2653   -1.1171    0.0044 C   0  0  0  0  0  4           0  0  0
   -2.0446   -0.0040    5.4234 C   0  0  0  0  0  4           0  0  0
   -1.5306   -0.0017    4.0471 C   0  0  0  0  0  4           0  0  0
   -3.2781    0.5717    5.7995 C   0  0  0  0  0  4           0  0  0
   -0.5425    0.0000    1.3966 C   0  0  0  0  0  4           0  0  0
   -1.2689   -0.5815    6.4490 C   0  0  0  0  0  4           0  0  0
   -1.2915    1.2039    3.3707 C   0  0  0  0  0  4           0  0  0
   -1.2647   -1.2060    3.3790 C   0  0  0  0  0  4           0  0  0
   -3.6975    0.5933    7.1375 C   0  0  0  0  0  4           0  0  0
   -0.8009    1.2048    2.0617 C   0  0  0  0  0  4           0  0  0
   -0.7743   -1.2055    2.0702 C   0  0  0  0  0  4           0  0  0
   -1.6926   -0.5725    7.7814 C   0  0  0  0  0  4           0  0  0
   -2.9036    0.0180    8.1252 C   0  0  0  0  0  4           0  0  0
   -4.2076    1.1721    4.8278 C   0  0  0  0  0  4           0  0  0
    1.7788   -2.5157    0.0058 C   0  0  0  0  0  4           0  0  0
    0.1768   -3.8913   -1.0604 C   0  0  0  0  0  4           0  0  0
    0.0000    0.0000    0.0000 C   0  0  0  0  0  4           0  0  0
    1.7865    2.5211   -0.0017 C   0  0  0  0  0  4           0  0  0
    2.5423    3.3936   -0.9988 C   0  0  0  0  0  4           0  0  0
    2.0795    4.8504   -1.0356 C   0  0  0  0  0  4           0  0  0
    2.8538    5.6911   -2.0399 C   0  0  0  0  0  4           0  0  0
  1  7  1  0     0  0
  2 22  2  0     0  0
  3 23  1  0     0  0
  3 24  1  0     0  0
  4 22  1  0     0  0
  5  8  1  0     0  0
  5  9  1  0     0  0
  5 25  1  0     0  0
  6  7  1  0     0  0
  6  8  2  0     0  0
  7  9  2  0     0  0
  8 26  1  0     0  0
  9 23  1  0     0  0
 10 11  1  0     0  0
 10 12  1  0     0  0
 10 14  2  0     0  0
 11 15  2  0     0  0
 11 16  1  0     0  0
 12 17  2  0     0  0
 12 22  1  0     0  0
 13 18  2  0     0  0
 13 19  1  0     0  0
 13 25  1  0     0  0
 14 20  1  0     0  0
 15 18  1  0     0  0
 16 19  2  0     0  0
 17 21  1  0     0  0
 20 21  2  0     0  0
 26 27  1  0     0  0
 27 28  1  0     0  0
 28 29  1  0     0  0
M  END
> <standard_type>
pIC50

> <# Confs.>
25

> <canonical_smiles>
ClC(N=C1CCCC)=C(COC)N1CC2=CC=C(C3=CC=CC=C3C(O)=O)C=C2

> <standard_relation>
=

> <Publication_ID>
nan

> <predicted_activity_value>
6.920818753952375

> <actual_activity_value>
7.00436480540245

> <Compound>
8

> <standard_units>
nM

> hash
1825488953729453991

$$$$
7
XXILIB    08252103503D 0   0.00000     0.00000

 29 31  0     1  0            999 V2000
    5.0074   -1.4914   -0.0122 Cl  0  0  0  0  0  1           0  0  0
    0.9600   -0.7200    5.9247 O   0  0  0  0  0  2           0  0  0
    0.7380   -2.5888   -0.9589 O   0  0  0  0  0  2           0  0  0
    0.6999    1.1956    7.1327 O   0  0  0  0  0  2           0  0  0
    1.4523   -0.0000   -0.0000 N   0  0  0  0  0  3           0  0  0
    3.5393    0.7630   -0.0025 N   0  0  0  0  0  3           0  0  0
    3.5500   -0.6068   -0.0019 C   0  0  0  0  0  4           0  0  0
    2.2690    1.1150    0.0000 C   0  0  0  0  0  4           0  0  0
    2.2653   -1.1171    0.0044 C   0  0  0  0  0  4           0  0  0
   -2.0446   -0.0040    5.4234 C   0  0  0  0  0  4           0  0  0
   -1.5306   -0.0017    4.0471 C   0  0  0  0  0  4           0  0  0
   -1.2174    0.0071    6.5680 C   0  0  0  0  0  4           0  0  0
   -0.5425    0.0000    1.3966 C   0  0  0  0  0  4           0  0  0
   -3.4366   -0.0486    5.6404 C   0  0  0  0  0  4           0  0  0
   -1.2915    1.2039    3.3707 C   0  0  0  0  0  4           0  0  0
   -1.2647   -1.2060    3.3790 C   0  0  0  0  0  4           0  0  0
   -1.7571   -0.0533    7.8611 C   0  0  0  0  0  4           0  0  0
   -0.8009    1.2048    2.0617 C   0  0  0  0  0  4           0  0  0
   -0.7743   -1.2055    2.0702 C   0  0  0  0  0  4           0  0  0
   -3.9760   -0.0952    6.9295 C   0  0  0  0  0  4           0  0  0
   -3.1366   -0.1017    8.0380 C   0  0  0  0  0  4           0  0  0
    0.2506    0.0942    6.4908 C   0  0  0  0  0  4           0  0  0
    1.7788   -2.5157    0.0058 C   0  0  0  0  0  4           0  0  0
    0.1768   -3.8913   -1.0604 C   0  0  0  0  0  4           0  0  0
    0.0000    0.0000    0.0000 C   0  0  0  0  0  4           0  0  0
    1.7865    2.5211   -0.0017 C   0  0  0  0  0  4           0  0  0
    2.5423    3.3936   -0.9988 C   0  0  0  0  0  4           0  0  0
    2.4340    2.9263   -2.4506 C   0  0  0  0  0  4           0  0  0
    3.1988    3.8184   -3.4171 C   0  0  0  0  0  4           0  0  0
  1  7  1  0     0  0
  2 22  2  0     0  0
  3 23  1  0     0  0
  3 24  1  0     0  0
  4 22  1  0     0  0
  5  8  1  0     0  0
  5  9  1  0     0  0
  5 25  1  0     0  0
  6  7  1  0     0  0
  6  8  2  0     0  0
  7  9  2  0     0  0
  8 26  1  0     0  0
  9 23  1  0     0  0
 10 11  1  0     0  0
 10 12  1  0     0  0
 10 14  2  0     0  0
 11 15  2  0     0  0
 11 16  1  0     0  0
 12 17  2  0     0  0
 12 22  1  0     0  0
 13 18  2  0     0  0
 13 19  1  0     0  0
 13 25  1  0     0  0
 14 20  1  0     0  0
 15 18  1  0     0  0
 16 19  2  0     0  0
 17 21  1  0     0  0
 20 21  2  0     0  0
 26 27  1  0     0  0
 27 28  1  0     0  0
 28 29  1  0     0  0
M  END
> <standard_type>
pIC50

> <# Confs.>
25

> <canonical_smiles>
ClC(N=C1CCCC)=C(COC)N1CC2=CC=C(C3=CC=CC=C3C(O)=O)C=C2

> <standard_relation>
=

> <Publication_ID>
nan

> <predicted_activity_value>
6.920818753952375

> <actual_activity_value>
7.00436480540245

> <Compound>
8

> <standard_units>
nM

> hash
1825488953729453991

$$$$
7
XXILIB    08252103503D 0   0.00000     0.00000

 29 31  0     1  0            999 V2000
    5.0074   -1.4914   -0.0122 Cl  0  0  0  0  0  1           0  0  0
    0.8597    1.0190    5.9803 O   0  0  0  0  0  2           0  0  0
    0.7380   -2.5888   -0.9589 O   0  0  0  0  0  2           0  0  0
    0.8258   -0.9885    7.0600 O   0  0  0  0  0  2           0  0  0
    1.4523   -0.0000   -0.0000 N   0  0  0  0  0  3           0  0  0
    3.5393    0.7630   -0.0025 N   0  0  0  0  0  3           0  0  0
    3.5500   -0.6068   -0.0019 C   0  0  0  0  0  4           0  0  0
    2.2690    1.1150    0.0000 C   0  0  0  0  0  4           0  0  0
    2.2653   -1.1171    0.0044 C   0  0  0  0  0  4           0  0  0
   -2.0446   -0.0040    5.4234 C   0  0  0  0  0  4           0  0  0
   -1.5306   -0.0017    4.0471 C   0  0  0  0  0  4           0  0  0
   -1.2174    0.0071    6.5680 C   0  0  0  0  0  4           0  0  0
   -0.5425    0.0000    1.3966 C   0  0  0  0  0  4           0  0  0
   -3.4366   -0.0486    5.6404 C   0  0  0  0  0  4           0  0  0
   -1.2915    1.2039    3.3707 C   0  0  0  0  0  4           0  0  0
   -1.2647   -1.2060    3.3790 C   0  0  0  0  0  4           0  0  0
   -1.7571   -0.0533    7.8611 C   0  0  0  0  0  4           0  0  0
   -0.8009    1.2048    2.0617 C   0  0  0  0  0  4           0  0  0
   -0.7743   -1.2055    2.0702 C   0  0  0  0  0  4           0  0  0
   -3.9760   -0.0952    6.9295 C   0  0  0  0  0  4           0  0  0
   -3.1366   -0.1017    8.0380 C   0  0  0  0  0  4           0  0  0
    0.2506    0.0942    6.4908 C   0  0  0  0  0  4           0  0  0
    1.7788   -2.5157    0.0058 C   0  0  0  0  0  4           0  0  0
    0.1768   -3.8913   -1.0604 C   0  0  0  0  0  4           0  0  0
    0.0000    0.0000    0.0000 C   0  0  0  0  0  4           0  0  0
    1.7865    2.5211   -0.0017 C   0  0  0  0  0  4           0  0  0
    2.5423    3.3936   -0.9988 C   0  0  0  0  0  4           0  0  0
    2.4340    2.9263   -2.4506 C   0  0  0  0  0  4           0  0  0
    3.1988    3.8184   -3.4171 C   0  0  0  0  0  4           0  0  0
  1  7  1  0     0  0
  2 22  2  0     0  0
  3 23  1  0     0  0
  3 24  1  0     0  0
  4 22  1  0     0  0
  5  8  1  0     0  0
  5  9  1  0     0  0
  5 25  1  0     0  0
  6  7  1  0     0  0
  6  8  2  0     0  0
  7  9  2  0     0  0
  8 26  1  0     0  0
  9 23  1  0     0  0
 10 11  1  0     0  0
 10 12  1  0     0  0
 10 14  2  0     0  0
 11 15  2  0     0  0
 11 16  1  0     0  0
 12 17  2  0     0  0
 12 22  1  0     0  0
 13 18  2  0     0  0
 13 19  1  0     0  0
 13 25  1  0     0  0
 14 20  1  0     0  0
 15 18  1  0     0  0
 16 19  2  0     0  0
 17 21  1  0     0  0
 20 21  2  0     0  0
 26 27  1  0     0  0
 27 28  1  0     0  0
 28 29  1  0     0  0
M  END
> <standard_type>
pIC50

> <# Confs.>
25

> <canonical_smiles>
ClC(N=C1CCCC)=C(COC)N1CC2=CC=C(C3=CC=CC=C3C(O)=O)C=C2

> <standard_relation>
=

> <Publication_ID>
nan

> <predicted_activity_value>
6.920818753952375

> <actual_activity_value>
7.00436480540245

> <Compound>
8

> <standard_units>
nM

> hash
1825488953729453991

$$$$
7
XXILIB    08252103503D 0   0.00000     0.00000

 29 31  0     1  0            999 V2000
    5.0074    1.4914    0.0122 Cl  0  0  0  0  0  1           0  0  0
   -4.7156    0.5693    3.8976 O   0  0  0  0  0  2           0  0  0
    0.7328    2.5851   -0.9651 O   0  0  0  0  0  2           0  0  0
   -4.4169    2.4777    5.1081 O   0  0  0  0  0  2           0  0  0
    1.4523    0.0000    0.0000 N   0  0  0  0  0  3           0  0  0
    3.5393   -0.7630    0.0025 N   0  0  0  0  0  3           0  0  0
    3.5500    0.6068    0.0019 C   0  0  0  0  0  4           0  0  0
    2.2690   -1.1150    0.0000 C   0  0  0  0  0  4           0  0  0
    2.2653    1.1171   -0.0044 C   0  0  0  0  0  4           0  0  0
   -2.0446   -0.0040    5.4234 C   0  0  0  0  0  4           0  0  0
   -1.5306   -0.0017    4.0471 C   0  0  0  0  0  4           0  0  0
   -3.2781    0.5717    5.7995 C   0  0  0  0  0  4           0  0  0
   -0.5425    0.0000    1.3966 C   0  0  0  0  0  4           0  0  0
   -1.2689   -0.5815    6.4490 C   0  0  0  0  0  4           0  0  0
   -1.2915    1.2039    3.3707 C   0  0  0  0  0  4           0  0  0
   -1.2647   -1.2060    3.3790 C   0  0  0  0  0  4           0  0  0
   -3.6975    0.5933    7.1375 C   0  0  0  0  0  4           0  0  0
   -0.8009    1.2048    2.0617 C   0  0  0  0  0  4           0  0  0
   -0.7743   -1.2055    2.0702 C   0  0  0  0  0  4           0  0  0
   -1.6926   -0.5725    7.7814 C   0  0  0  0  0  4           0  0  0
   -2.9036    0.0180    8.1252 C   0  0  0  0  0  4           0  0  0
   -4.2076    1.1721    4.8278 C   0  0  0  0  0  4           0  0  0
    1.7788    2.5157   -0.0058 C   0  0  0  0  0  4           0  0  0
    0.1710    3.8871   -1.0687 C   0  0  0  0  0  4           0  0  0
    0.0000    0.0000    0.0000 C   0  0  0  0  0  4           0  0  0
    1.7865   -2.5211    0.0017 C   0  0  0  0  0  4           0  0  0
    2.5400   -3.3953   -0.9956 C   0  0  0  0  0  4           0  0  0
    2.4284   -2.9304   -2.4480 C   0  0  0  0  0  4           0  0  0
    3.1910   -3.8241   -3.4146 C   0  0  0  0  0  4           0  0  0
  1  7  1  0     0  0
  2 22  2  0     0  0
  3 23  1  0     0  0
  3 24  1  0     0  0
  4 22  1  0     0  0
  5  8  1  0     0  0
  5  9  1  0     0  0
  5 25  1  0     0  0
  6  7  1  0     0  0
  6  8  2  0     0  0
  7  9  2  0     0  0
  8 26  1  0     0  0
  9 23  1  0     0  0
 10 11  1  0     0  0
 10 12  1  0     0  0
 10 14  2  0     0  0
 11 15  2  0     0  0
 11 16  1  0     0  0
 12 17  2  0     0  0
 12 22  1  0     0  0
 13 18  2  0     0  0
 13 19  1  0     0  0
 13 25  1  0     0  0
 14 20  1  0     0  0
 15 18  1  0     0  0
 16 19  2  0     0  0
 17 21  1  0     0  0
 20 21  2  0     0  0
 26 27  1  0     0  0
 27 28  1  0     0  0
 28 29  1  0     0  0
M  END
> <standard_type>
pIC50

> <# Confs.>
25

> <canonical_smiles>
ClC(N=C1CCCC)=C(COC)N1CC2=CC=C(C3=CC=CC=C3C(O)=O)C=C2

> <standard_relation>
=

> <Publication_ID>
nan

> <predicted_activity_value>
6.920818753952375

> <actual_activity_value>
7.00436480540245

> <Compound>
8

> <standard_units>
nM

> hash
1825488953729453991

$$$$
7
XXILIB    08252103503D 0   0.00000     0.00000

 29 31  0     1  0            999 V2000
    5.0074    1.4914    0.0122 Cl  0  0  0  0  0  1           0  0  0
   -0.7206    2.7501    5.4450 O   0  0  0  0  0  2           0  0  0
    1.6404    2.9003   -1.3667 O   0  0  0  0  0  2           0  0  0
    0.4450    1.5680    7.0072 O   0  0  0  0  0  2           0  0  0
    1.4523   -0.0000   -0.0000 N   0  0  0  0  0  3           0  0  0
    3.5393   -0.7630    0.0025 N   0  0  0  0  0  3           0  0  0
    3.5500    0.6068    0.0019 C   0  0  0  0  0  4           0  0  0
    2.2690   -1.1150    0.0000 C   0  0  0  0  0  4           0  0  0
    2.2653    1.1171   -0.0044 C   0  0  0  0  0  4           0  0  0
   -2.1395   -0.0382    5.3866 C   0  0  0  0  0  4           0  0  0
   -1.5933   -0.0262    4.0227 C   0  0  0  0  0  4           0  0  0
   -1.6696    0.7952    6.4254 C   0  0  0  0  0  4           0  0  0
   -0.5425    0.0000    1.3966 C   0  0  0  0  0  4           0  0  0
   -3.1711   -0.9429    5.7091 C   0  0  0  0  0  4           0  0  0
   -0.5245   -0.8631    3.6687 C   0  0  0  0  0  4           0  0  0
   -2.1307    0.8212    3.0426 C   0  0  0  0  0  4           0  0  0
   -2.1867    0.7049    7.7259 C   0  0  0  0  0  4           0  0  0
   -0.0068   -0.8519    2.3702 C   0  0  0  0  0  4           0  0  0
   -1.6132    0.8328    1.7443 C   0  0  0  0  0  4           0  0  0
   -3.6966   -1.0242    7.0023 C   0  0  0  0  0  4           0  0  0
   -3.2017   -0.2038    8.0100 C   0  0  0  0  0  4           0  0  0
   -0.6264    1.8142    6.2208 C   0  0  0  0  0  4           0  0  0
    1.7788    2.5157   -0.0058 C   0  0  0  0  0  4           0  0  0
    1.1753    4.2360   -1.5130 C   0  0  0  0  0  4           0  0  0
    0.0000   -0.0000    0.0000 C   0  0  0  0  0  4           0  0  0
    1.7865   -2.5211    0.0017 C   0  0  0  0  0  4           0  0  0
    2.5423   -3.3936    0.9988 C   0  0  0  0  0  4           0  0  0
    2.0795   -4.8504    1.0356 C   0  0  0  0  0  4           0  0  0
    2.8538   -5.6911    2.0399 C   0  0  0  0  0  4           0  0  0
  1  7  1  0     0  0
  2 22  2  0     0  0
  3 23  1  0     0  0
  3 24  1  0     0  0
  4 22  1  0     0  0
  5  8  1  0     0  0
  5  9  1  0     0  0
  5 25  1  0     0  0
  6  7  1  0     0  0
  6  8  2  0     0  0
  7  9  2  0     0  0
  8 26  1  0     0  0
  9 23  1  0     0  0
 10 11  1  0     0  0
 10 12  1  0     0  0
 10 14  2  0     0  0
 11 15  2  0     0  0
 11 16  1  0     0  0
 12 17  2  0     0  0
 12 22  1  0     0  0
 13 18  2  0     0  0
 13 19  1  0     0  0
 13 25  1  0     0  0
 14 20  1  0     0  0
 15 18  1  0     0  0
 16 19  2  0     0  0
 17 21  1  0     0  0
 20 21  2  0     0  0
 26 27  1  0     0  0
 27 28  1  0     0  0
 28 29  1  0     0  0
M  END
> <standard_type>
pIC50

> <# Confs.>
25

> <canonical_smiles>
ClC(N=C1CCCC)=C(COC)N1CC2=CC=C(C3=CC=CC=C3C(O)=O)C=C2

> <standard_relation>
=

> <Publication_ID>
nan

> <predicted_activity_value>
6.920818753952375

> <actual_activity_value>
7.00436480540245

> <Compound>
8

> <standard_units>
nM

> hash
1825488953729453991

$$$$
7
XXILIB    08252103503D 0   0.00000     0.00000

 29 31  0     1  0            999 V2000
    5.0074   -1.4914   -0.0122 Cl  0  0  0  0  0  1           0  0  0
   -0.4362   -2.5833    5.4690 O   0  0  0  0  0  2           0  0  0
    1.6478   -2.9056   -1.3543 O   0  0  0  0  0  2           0  0  0
    0.4951   -1.3412    7.1382 O   0  0  0  0  0  2           0  0  0
    1.4523    0.0000    0.0000 N   0  0  0  0  0  3           0  0  0
    3.5393    0.7630   -0.0025 N   0  0  0  0  0  3           0  0  0
    3.5500   -0.6068   -0.0019 C   0  0  0  0  0  4           0  0  0
    2.2690    1.1150    0.0000 C   0  0  0  0  0  4           0  0  0
    2.2653   -1.1171    0.0044 C   0  0  0  0  0  4           0  0  0
   -2.1342    0.0438    5.3886 C   0  0  0  0  0  4           0  0  0
   -1.5911    0.0286    4.0236 C   0  0  0  0  0  4           0  0  0
   -1.6465   -0.7703    6.4344 C   0  0  0  0  0  4           0  0  0
   -0.5425    0.0000    1.3966 C   0  0  0  0  0  4           0  0  0
   -3.2217    0.8886    5.6894 C   0  0  0  0  0  4           0  0  0
   -2.1116   -0.8395    3.0522 C   0  0  0  0  0  4           0  0  0
   -0.5409    0.8844    3.6602 C   0  0  0  0  0  4           0  0  0
   -2.2373   -0.7592    7.7063 C   0  0  0  0  0  4           0  0  0
   -1.5950   -0.8519    1.7533 C   0  0  0  0  0  4           0  0  0
   -0.0240    0.8721    2.3617 C   0  0  0  0  0  4           0  0  0
   -3.8028    0.9102    6.9610 C   0  0  0  0  0  4           0  0  0
   -3.3133    0.0840    7.9666 C   0  0  0  0  0  4           0  0  0
   -0.4908   -1.6687    6.2735 C   0  0  0  0  0  4           0  0  0
    1.7788   -2.5157    0.0058 C   0  0  0  0  0  4           0  0  0
    1.1835   -4.2419   -1.4980 C   0  0  0  0  0  4           0  0  0
   -0.0000    0.0000    0.0000 C   0  0  0  0  0  4           0  0  0
    1.7865    2.5211   -0.0017 C   0  0  0  0  0  4           0  0  0
    2.5423    3.3936   -0.9988 C   0  0  0  0  0  4           0  0  0
    2.4340    2.9263   -2.4506 C   0  0  0  0  0  4           0  0  0
    3.1988    3.8184   -3.4171 C   0  0  0  0  0  4           0  0  0
  1  7  1  0     0  0
  2 22  2  0     0  0
  3 23  1  0     0  0
  3 24  1  0     0  0
  4 22  1  0     0  0
  5  8  1  0     0  0
  5  9  1  0     0  0
  5 25  1  0     0  0
  6  7  1  0     0  0
  6  8  2  0     0  0
  7  9  2  0     0  0
  8 26  1  0     0  0
  9 23  1  0     0  0
 10 11  1  0     0  0
 10 12  1  0     0  0
 10 14  2  0     0  0
 11 15  2  0     0  0
 11 16  1  0     0  0
 12 17  2  0     0  0
 12 22  1  0     0  0
 13 18  2  0     0  0
 13 19  1  0     0  0
 13 25  1  0     0  0
 14 20  1  0     0  0
 15 18  1  0     0  0
 16 19  2  0     0  0
 17 21  1  0     0  0
 20 21  2  0     0  0
 26 27  1  0     0  0
 27 28  1  0     0  0
 28 29  1  0     0  0
M  END
> <standard_type>
pIC50

> <# Confs.>
25

> <canonical_smiles>
ClC(N=C1CCCC)=C(COC)N1CC2=CC=C(C3=CC=CC=C3C(O)=O)C=C2

> <standard_relation>
=

> <Publication_ID>
nan

> <predicted_activity_value>
6.920818753952375

> <actual_activity_value>
7.00436480540245

> <Compound>
8

> <standard_units>
nM

> hash
1825488953729453991

$$$$
7
XXILIB    08252103503D 0   0.00000     0.00000

 29 31  0     1  0            999 V2000
    5.0074    1.4914    0.0122 Cl  0  0  0  0  0  1           0  0  0
   -4.7156    0.5693    3.8976 O   0  0  0  0  0  2           0  0  0
    0.7328    2.5851   -0.9651 O   0  0  0  0  0  2           0  0  0
   -4.4169    2.4777    5.1081 O   0  0  0  0  0  2           0  0  0
    1.4523    0.0000    0.0000 N   0  0  0  0  0  3           0  0  0
    3.5393   -0.7630    0.0025 N   0  0  0  0  0  3           0  0  0
    3.5500    0.6068    0.0019 C   0  0  0  0  0  4           0  0  0
    2.2690   -1.1150    0.0000 C   0  0  0  0  0  4           0  0  0
    2.2653    1.1171   -0.0044 C   0  0  0  0  0  4           0  0  0
   -2.0446   -0.0040    5.4234 C   0  0  0  0  0  4           0  0  0
   -1.5306   -0.0017    4.0471 C   0  0  0  0  0  4           0  0  0
   -3.2781    0.5717    5.7995 C   0  0  0  0  0  4           0  0  0
   -0.5425    0.0000    1.3966 C   0  0  0  0  0  4           0  0  0
   -1.2689   -0.5815    6.4490 C   0  0  0  0  0  4           0  0  0
   -1.2915    1.2039    3.3707 C   0  0  0  0  0  4           0  0  0
   -1.2647   -1.2060    3.3790 C   0  0  0  0  0  4           0  0  0
   -3.6975    0.5933    7.1375 C   0  0  0  0  0  4           0  0  0
   -0.8009    1.2048    2.0617 C   0  0  0  0  0  4           0  0  0
   -0.7743   -1.2055    2.0702 C   0  0  0  0  0  4           0  0  0
   -1.6926   -0.5725    7.7814 C   0  0  0  0  0  4           0  0  0
   -2.9036    0.0180    8.1252 C   0  0  0  0  0  4           0  0  0
   -4.2076    1.1721    4.8278 C   0  0  0  0  0  4           0  0  0
    1.7788    2.5157   -0.0058 C   0  0  0  0  0  4           0  0  0
    0.1710    3.8871   -1.0687 C   0  0  0  0  0  4           0  0  0
    0.0000    0.0000    0.0000 C   0  0  0  0  0  4           0  0  0
    1.7865   -2.5211    0.0017 C   0  0  0  0  0  4           0  0  0
    2.5400   -3.3953   -0.9956 C   0  0  0  0  0  4           0  0  0
    2.0772   -4.8522   -1.0289 C   0  0  0  0  0  4           0  0  0
    2.8491   -5.6945   -2.0335 C   0  0  0  0  0  4           0  0  0
  1  7  1  0     0  0
  2 22  2  0     0  0
  3 23  1  0     0  0
  3 24  1  0     0  0
  4 22  1  0     0  0
  5  8  1  0     0  0
  5  9  1  0     0  0
  5 25  1  0     0  0
  6  7  1  0     0  0
  6  8  2  0     0  0
  7  9  2  0     0  0
  8 26  1  0     0  0
  9 23  1  0     0  0
 10 11  1  0     0  0
 10 12  1  0     0  0
 10 14  2  0     0  0
 11 15  2  0     0  0
 11 16  1  0     0  0
 12 17  2  0     0  0
 12 22  1  0     0  0
 13 18  2  0     0  0
 13 19  1  0     0  0
 13 25  1  0     0  0
 14 20  1  0     0  0
 15 18  1  0     0  0
 16 19  2  0     0  0
 17 21  1  0     0  0
 20 21  2  0     0  0
 26 27  1  0     0  0
 27 28  1  0     0  0
 28 29  1  0     0  0
M  END
> <standard_type>
pIC50

> <# Confs.>
25

> <canonical_smiles>
ClC(N=C1CCCC)=C(COC)N1CC2=CC=C(C3=CC=CC=C3C(O)=O)C=C2

> <standard_relation>
=

> <Publication_ID>
nan

> <predicted_activity_value>
6.920818753952375

> <actual_activity_value>
7.00436480540245

> <Compound>
8

> <standard_units>
nM

> hash
1825488953729453991

$$$$
7
XXILIB    08252103503D 0   0.00000     0.00000

 29 31  0     1  0            999 V2000
    5.0074   -1.4914   -0.0122 Cl  0  0  0  0  0  1           0  0  0
   -4.5330    1.3774    3.8855 O   0  0  0  0  0  2           0  0  0
    1.6478   -2.9056   -1.3543 O   0  0  0  0  0  2           0  0  0
   -3.8155    3.0509    5.2570 O   0  0  0  0  0  2           0  0  0
    1.4523    0.0000    0.0000 N   0  0  0  0  0  3           0  0  0
    3.5393    0.7630   -0.0025 N   0  0  0  0  0  3           0  0  0
    3.5500   -0.6068   -0.0019 C   0  0  0  0  0  4           0  0  0
    2.2690    1.1150    0.0000 C   0  0  0  0  0  4           0  0  0
    2.2653   -1.1171    0.0044 C   0  0  0  0  0  4           0  0  0
   -2.1342    0.0438    5.3886 C   0  0  0  0  0  4           0  0  0
   -1.5911    0.0286    4.0236 C   0  0  0  0  0  4           0  0  0
   -3.2008    0.8743    5.7976 C   0  0  0  0  0  4           0  0  0
   -0.5425    0.0000    1.3966 C   0  0  0  0  0  4           0  0  0
   -1.5571   -0.7866    6.3705 C   0  0  0  0  0  4           0  0  0
   -2.1116   -0.8395    3.0522 C   0  0  0  0  0  4           0  0  0
   -0.5409    0.8844    3.6602 C   0  0  0  0  0  4           0  0  0
   -3.6452    0.8923    7.1276 C   0  0  0  0  0  4           0  0  0
   -1.5950   -0.8519    1.7533 C   0  0  0  0  0  4           0  0  0
   -0.0240    0.8721    2.3617 C   0  0  0  0  0  4           0  0  0
   -2.0085   -0.7791    7.6938 C   0  0  0  0  0  4           0  0  0
   -3.0486    0.0626    8.0722 C   0  0  0  0  0  4           0  0  0
   -3.9232    1.7605    4.8694 C   0  0  0  0  0  4           0  0  0
    1.7788   -2.5157    0.0058 C   0  0  0  0  0  4           0  0  0
    1.1835   -4.2419   -1.4980 C   0  0  0  0  0  4           0  0  0
   -0.0000    0.0000    0.0000 C   0  0  0  0  0  4           0  0  0
    1.7865    2.5211   -0.0017 C   0  0  0  0  0  4           0  0  0
    2.5423    3.3936   -0.9988 C   0  0  0  0  0  4           0  0  0
    2.4340    2.9263   -2.4506 C   0  0  0  0  0  4           0  0  0
    3.1988    3.8184   -3.4171 C   0  0  0  0  0  4           0  0  0
  1  7  1  0     0  0
  2 22  2  0     0  0
  3 23  1  0     0  0
  3 24  1  0     0  0
  4 22  1  0     0  0
  5  8  1  0     0  0
  5  9  1  0     0  0
  5 25  1  0     0  0
  6  7  1  0     0  0
  6  8  2  0     0  0
  7  9  2  0     0  0
  8 26  1  0     0  0
  9 23  1  0     0  0
 10 11  1  0     0  0
 10 12  1  0     0  0
 10 14  2  0     0  0
 11 15  2  0     0  0
 11 16  1  0     0  0
 12 17  2  0     0  0
 12 22  1  0     0  0
 13 18  2  0     0  0
 13 19  1  0     0  0
 13 25  1  0     0  0
 14 20  1  0     0  0
 15 18  1  0     0  0
 16 19  2  0     0  0
 17 21  1  0     0  0
 20 21  2  0     0  0
 26 27  1  0     0  0
 27 28  1  0     0  0
 28 29  1  0     0  0
M  END
> <standard_type>
pIC50

> <# Confs.>
25

> <canonical_smiles>
ClC(N=C1CCCC)=C(COC)N1CC2=CC=C(C3=CC=CC=C3C(O)=O)C=C2

> <standard_relation>
=

> <Publication_ID>
nan

> <predicted_activity_value>
6.920818753952375

> <actual_activity_value>
7.00436480540245

> <Compound>
8

> <standard_units>
nM

> hash
1825488953729453991

$$$$
7
XXILIB    08252103503D 0   0.00000     0.00000

 29 31  0     1  0            999 V2000
    5.0074   -1.4914   -0.0122 Cl  0  0  0  0  0  1           0  0  0
   -0.4362   -2.5833    5.4690 O   0  0  0  0  0  2           0  0  0
    1.6478   -2.9056   -1.3543 O   0  0  0  0  0  2           0  0  0
    0.4951   -1.3412    7.1382 O   0  0  0  0  0  2           0  0  0
    1.4523    0.0000    0.0000 N   0  0  0  0  0  3           0  0  0
    3.5393    0.7630   -0.0025 N   0  0  0  0  0  3           0  0  0
    3.5500   -0.6068   -0.0019 C   0  0  0  0  0  4           0  0  0
    2.2690    1.1150    0.0000 C   0  0  0  0  0  4           0  0  0
    2.2653   -1.1171    0.0044 C   0  0  0  0  0  4           0  0  0
   -2.1342    0.0438    5.3886 C   0  0  0  0  0  4           0  0  0
   -1.5911    0.0286    4.0236 C   0  0  0  0  0  4           0  0  0
   -1.6465   -0.7703    6.4344 C   0  0  0  0  0  4           0  0  0
   -0.5425    0.0000    1.3966 C   0  0  0  0  0  4           0  0  0
   -3.2217    0.8886    5.6894 C   0  0  0  0  0  4           0  0  0
   -2.1116   -0.8395    3.0522 C   0  0  0  0  0  4           0  0  0
   -0.5409    0.8844    3.6602 C   0  0  0  0  0  4           0  0  0
   -2.2373   -0.7592    7.7063 C   0  0  0  0  0  4           0  0  0
   -1.5950   -0.8519    1.7533 C   0  0  0  0  0  4           0  0  0
   -0.0240    0.8721    2.3617 C   0  0  0  0  0  4           0  0  0
   -3.8028    0.9102    6.9610 C   0  0  0  0  0  4           0  0  0
   -3.3133    0.0840    7.9666 C   0  0  0  0  0  4           0  0  0
   -0.4908   -1.6687    6.2735 C   0  0  0  0  0  4           0  0  0
    1.7788   -2.5157    0.0058 C   0  0  0  0  0  4           0  0  0
    1.1835   -4.2419   -1.4980 C   0  0  0  0  0  4           0  0  0
   -0.0000    0.0000    0.0000 C   0  0  0  0  0  4           0  0  0
    1.7865    2.5211   -0.0017 C   0  0  0  0  0  4           0  0  0
    2.5423    3.3936   -0.9988 C   0  0  0  0  0  4           0  0  0
    2.0795    4.8504   -1.0356 C   0  0  0  0  0  4           0  0  0
    2.8538    5.6911   -2.0399 C   0  0  0  0  0  4           0  0  0
  1  7  1  0     0  0
  2 22  2  0     0  0
  3 23  1  0     0  0
  3 24  1  0     0  0
  4 22  1  0     0  0
  5  8  1  0     0  0
  5  9  1  0     0  0
  5 25  1  0     0  0
  6  7  1  0     0  0
  6  8  2  0     0  0
  7  9  2  0     0  0
  8 26  1  0     0  0
  9 23  1  0     0  0
 10 11  1  0     0  0
 10 12  1  0     0  0
 10 14  2  0     0  0
 11 15  2  0     0  0
 11 16  1  0     0  0
 12 17  2  0     0  0
 12 22  1  0     0  0
 13 18  2  0     0  0
 13 19  1  0     0  0
 13 25  1  0     0  0
 14 20  1  0     0  0
 15 18  1  0     0  0
 16 19  2  0     0  0
 17 21  1  0     0  0
 20 21  2  0     0  0
 26 27  1  0     0  0
 27 28  1  0     0  0
 28 29  1  0     0  0
M  END
> <standard_type>
pIC50

> <# Confs.>
25

> <canonical_smiles>
ClC(N=C1CCCC)=C(COC)N1CC2=CC=C(C3=CC=CC=C3C(O)=O)C=C2

> <standard_relation>
=

> <Publication_ID>
nan

> <predicted_activity_value>
6.920818753952375

> <actual_activity_value>
7.00436480540245

> <Compound>
8

> <standard_units>
nM

> hash
1825488953729453991

$$$$
7
XXILIB    08252103503D 0   0.00000     0.00000

 29 31  0     1  0            999 V2000
    5.0074   -1.4914   -0.0122 Cl  0  0  0  0  0  1           0  0  0
   -4.5330    1.3774    3.8855 O   0  0  0  0  0  2           0  0  0
    1.6478   -2.9056   -1.3543 O   0  0  0  0  0  2           0  0  0
   -3.8155    3.0509    5.2570 O   0  0  0  0  0  2           0  0  0
    1.4523    0.0000    0.0000 N   0  0  0  0  0  3           0  0  0
    3.5393    0.7630   -0.0025 N   0  0  0  0  0  3           0  0  0
    3.5500   -0.6068   -0.0019 C   0  0  0  0  0  4           0  0  0
    2.2690    1.1150    0.0000 C   0  0  0  0  0  4           0  0  0
    2.2653   -1.1171    0.0044 C   0  0  0  0  0  4           0  0  0
   -2.1342    0.0438    5.3886 C   0  0  0  0  0  4           0  0  0
   -1.5911    0.0286    4.0236 C   0  0  0  0  0  4           0  0  0
   -3.2008    0.8743    5.7976 C   0  0  0  0  0  4           0  0  0
   -0.5425    0.0000    1.3966 C   0  0  0  0  0  4           0  0  0
   -1.5571   -0.7866    6.3705 C   0  0  0  0  0  4           0  0  0
   -2.1116   -0.8395    3.0522 C   0  0  0  0  0  4           0  0  0
   -0.5409    0.8844    3.6602 C   0  0  0  0  0  4           0  0  0
   -3.6452    0.8923    7.1276 C   0  0  0  0  0  4           0  0  0
   -1.5950   -0.8519    1.7533 C   0  0  0  0  0  4           0  0  0
   -0.0240    0.8721    2.3617 C   0  0  0  0  0  4           0  0  0
   -2.0085   -0.7791    7.6938 C   0  0  0  0  0  4           0  0  0
   -3.0486    0.0626    8.0722 C   0  0  0  0  0  4           0  0  0
   -3.9232    1.7605    4.8694 C   0  0  0  0  0  4           0  0  0
    1.7788   -2.5157    0.0058 C   0  0  0  0  0  4           0  0  0
    1.1835   -4.2419   -1.4980 C   0  0  0  0  0  4           0  0  0
   -0.0000    0.0000    0.0000 C   0  0  0  0  0  4           0  0  0
    1.7865    2.5211   -0.0017 C   0  0  0  0  0  4           0  0  0
    2.5423    3.3936   -0.9988 C   0  0  0  0  0  4           0  0  0
    2.0795    4.8504   -1.0356 C   0  0  0  0  0  4           0  0  0
    2.8538    5.6911   -2.0399 C   0  0  0  0  0  4           0  0  0
  1  7  1  0     0  0
  2 22  2  0     0  0
  3 23  1  0     0  0
  3 24  1  0     0  0
  4 22  1  0     0  0
  5  8  1  0     0  0
  5  9  1  0     0  0
  5 25  1  0     0  0
  6  7  1  0     0  0
  6  8  2  0     0  0
  7  9  2  0     0  0
  8 26  1  0     0  0
  9 23  1  0     0  0
 10 11  1  0     0  0
 10 12  1  0     0  0
 10 14  2  0     0  0
 11 15  2  0     0  0
 11 16  1  0     0  0
 12 17  2  0     0  0
 12 22  1  0     0  0
 13 18  2  0     0  0
 13 19  1  0     0  0
 13 25  1  0     0  0
 14 20  1  0     0  0
 15 18  1  0     0  0
 16 19  2  0     0  0
 17 21  1  0     0  0
 20 21  2  0     0  0
 26 27  1  0     0  0
 27 28  1  0     0  0
 28 29  1  0     0  0
M  END
> <standard_type>
pIC50

> <# Confs.>
25

> <canonical_smiles>
ClC(N=C1CCCC)=C(COC)N1CC2=CC=C(C3=CC=CC=C3C(O)=O)C=C2

> <standard_relation>
=

> <Publication_ID>
nan

> <predicted_activity_value>
6.920818753952375

> <actual_activity_value>
7.00436480540245

> <Compound>
8

> <standard_units>
nM

> hash
1825488953729453991

$$$$
7
XXILIB    08252103503D 0   0.00000     0.00000

 29 31  0     1  0            999 V2000
    5.0074    1.4914    0.0122 Cl  0  0  0  0  0  1           0  0  0
   -0.7206    2.7501    5.4450 O   0  0  0  0  0  2           0  0  0
    1.6404    2.9003   -1.3667 O   0  0  0  0  0  2           0  0  0
    0.4450    1.5680    7.0072 O   0  0  0  0  0  2           0  0  0
    1.4523   -0.0000   -0.0000 N   0  0  0  0  0  3           0  0  0
    3.5393   -0.7630    0.0025 N   0  0  0  0  0  3           0  0  0
    3.5500    0.6068    0.0019 C   0  0  0  0  0  4           0  0  0
    2.2690   -1.1150    0.0000 C   0  0  0  0  0  4           0  0  0
    2.2653    1.1171   -0.0044 C   0  0  0  0  0  4           0  0  0
   -2.1395   -0.0382    5.3866 C   0  0  0  0  0  4           0  0  0
   -1.5933   -0.0262    4.0227 C   0  0  0  0  0  4           0  0  0
   -1.6696    0.7952    6.4254 C   0  0  0  0  0  4           0  0  0
   -0.5425    0.0000    1.3966 C   0  0  0  0  0  4           0  0  0
   -3.1711   -0.9429    5.7091 C   0  0  0  0  0  4           0  0  0
   -0.5245   -0.8631    3.6687 C   0  0  0  0  0  4           0  0  0
   -2.1307    0.8212    3.0426 C   0  0  0  0  0  4           0  0  0
   -2.1867    0.7049    7.7259 C   0  0  0  0  0  4           0  0  0
   -0.0068   -0.8519    2.3702 C   0  0  0  0  0  4           0  0  0
   -1.6132    0.8328    1.7443 C   0  0  0  0  0  4           0  0  0
   -3.6966   -1.0242    7.0023 C   0  0  0  0  0  4           0  0  0
   -3.2017   -0.2038    8.0100 C   0  0  0  0  0  4           0  0  0
   -0.6264    1.8142    6.2208 C   0  0  0  0  0  4           0  0  0
    1.7788    2.5157   -0.0058 C   0  0  0  0  0  4           0  0  0
    1.1753    4.2360   -1.5130 C   0  0  0  0  0  4           0  0  0
    0.0000   -0.0000    0.0000 C   0  0  0  0  0  4           0  0  0
    1.7865   -2.5211    0.0017 C   0  0  0  0  0  4           0  0  0
    2.5400   -3.3953   -0.9956 C   0  0  0  0  0  4           0  0  0
    2.4284   -2.9304   -2.4480 C   0  0  0  0  0  4           0  0  0
    3.1910   -3.8241   -3.4146 C   0  0  0  0  0  4           0  0  0
  1  7  1  0     0  0
  2 22  2  0     0  0
  3 23  1  0     0  0
  3 24  1  0     0  0
  4 22  1  0     0  0
  5  8  1  0     0  0
  5  9  1  0     0  0
  5 25  1  0     0  0
  6  7  1  0     0  0
  6  8  2  0     0  0
  7  9  2  0     0  0
  8 26  1  0     0  0
  9 23  1  0     0  0
 10 11  1  0     0  0
 10 12  1  0     0  0
 10 14  2  0     0  0
 11 15  2  0     0  0
 11 16  1  0     0  0
 12 17  2  0     0  0
 12 22  1  0     0  0
 13 18  2  0     0  0
 13 19  1  0     0  0
 13 25  1  0     0  0
 14 20  1  0     0  0
 15 18  1  0     0  0
 16 19  2  0     0  0
 17 21  1  0     0  0
 20 21  2  0     0  0
 26 27  1  0     0  0
 27 28  1  0     0  0
 28 29  1  0     0  0
M  END
> <standard_type>
pIC50

> <# Confs.>
25

> <canonical_smiles>
ClC(N=C1CCCC)=C(COC)N1CC2=CC=C(C3=CC=CC=C3C(O)=O)C=C2

> <standard_relation>
=

> <Publication_ID>
nan

> <predicted_activity_value>
6.920818753952375

> <actual_activity_value>
7.00436480540245

> <Compound>
8

> <standard_units>
nM

> hash
1825488953729453991

$$$$
7
XXILIB    08252103503D 0   0.00000     0.00000

 29 31  0     1  0            999 V2000
    5.0074   -1.4914   -0.0122 Cl  0  0  0  0  0  1           0  0  0
   -3.4032    2.6589    4.2298 O   0  0  0  0  0  2           0  0  0
    1.6478   -2.9056   -1.3543 O   0  0  0  0  0  2           0  0  0
   -5.2361    1.4422    4.8267 O   0  0  0  0  0  2           0  0  0
    1.4523    0.0000    0.0000 N   0  0  0  0  0  3           0  0  0
    3.5393    0.7630   -0.0025 N   0  0  0  0  0  3           0  0  0
    3.5500   -0.6068   -0.0019 C   0  0  0  0  0  4           0  0  0
    2.2690    1.1150    0.0000 C   0  0  0  0  0  4           0  0  0
    2.2653   -1.1171    0.0044 C   0  0  0  0  0  4           0  0  0
   -2.1342    0.0438    5.3886 C   0  0  0  0  0  4           0  0  0
   -1.5911    0.0286    4.0236 C   0  0  0  0  0  4           0  0  0
   -3.2008    0.8743    5.7976 C   0  0  0  0  0  4           0  0  0
   -0.5425    0.0000    1.3966 C   0  0  0  0  0  4           0  0  0
   -1.5571   -0.7866    6.3705 C   0  0  0  0  0  4           0  0  0
   -2.1116   -0.8395    3.0522 C   0  0  0  0  0  4           0  0  0
   -0.5409    0.8844    3.6602 C   0  0  0  0  0  4           0  0  0
   -3.6452    0.8923    7.1276 C   0  0  0  0  0  4           0  0  0
   -1.5950   -0.8519    1.7533 C   0  0  0  0  0  4           0  0  0
   -0.0240    0.8721    2.3617 C   0  0  0  0  0  4           0  0  0
   -2.0085   -0.7791    7.6938 C   0  0  0  0  0  4           0  0  0
   -3.0486    0.0626    8.0722 C   0  0  0  0  0  4           0  0  0
   -3.9232    1.7605    4.8694 C   0  0  0  0  0  4           0  0  0
    1.7788   -2.5157    0.0058 C   0  0  0  0  0  4           0  0  0
    1.1835   -4.2419   -1.4980 C   0  0  0  0  0  4           0  0  0
   -0.0000    0.0000    0.0000 C   0  0  0  0  0  4           0  0  0
    1.7865    2.5211   -0.0017 C   0  0  0  0  0  4           0  0  0
    2.5423    3.3936   -0.9988 C   0  0  0  0  0  4           0  0  0
    2.4340    2.9263   -2.4506 C   0  0  0  0  0  4           0  0  0
    3.1988    3.8184   -3.4171 C   0  0  0  0  0  4           0  0  0
  1  7  1  0     0  0
  2 22  2  0     0  0
  3 23  1  0     0  0
  3 24  1  0     0  0
  4 22  1  0     0  0
  5  8  1  0     0  0
  5  9  1  0     0  0
  5 25  1  0     0  0
  6  7  1  0     0  0
  6  8  2  0     0  0
  7  9  2  0     0  0
  8 26  1  0     0  0
  9 23  1  0     0  0
 10 11  1  0     0  0
 10 12  1  0     0  0
 10 14  2  0     0  0
 11 15  2  0     0  0
 11 16  1  0     0  0
 12 17  2  0     0  0
 12 22  1  0     0  0
 13 18  2  0     0  0
 13 19  1  0     0  0
 13 25  1  0     0  0
 14 20  1  0     0  0
 15 18  1  0     0  0
 16 19  2  0     0  0
 17 21  1  0     0  0
 20 21  2  0     0  0
 26 27  1  0     0  0
 27 28  1  0     0  0
 28 29  1  0     0  0
M  END
> <standard_type>
pIC50

> <# Confs.>
25

> <canonical_smiles>
ClC(N=C1CCCC)=C(COC)N1CC2=CC=C(C3=CC=CC=C3C(O)=O)C=C2

> <standard_relation>
=

> <Publication_ID>
nan

> <predicted_activity_value>
6.920818753952375

> <actual_activity_value>
7.00436480540245

> <Compound>
8

> <standard_units>
nM

> hash
1825488953729453991

$$$$
7
XXILIB    08252103503D 0   0.00000     0.00000

 29 31  0     1  0            999 V2000
    5.0074    1.4914    0.0122 Cl  0  0  0  0  0  1           0  0  0
   -4.3523   -1.6406    3.8611 O   0  0  0  0  0  2           0  0  0
    1.6404    2.9003   -1.3667 O   0  0  0  0  0  2           0  0  0
   -3.6600   -3.1330    5.4390 O   0  0  0  0  0  2           0  0  0
    1.4523   -0.0000   -0.0000 N   0  0  0  0  0  3           0  0  0
    3.5393   -0.7630    0.0025 N   0  0  0  0  0  3           0  0  0
    3.5500    0.6068    0.0019 C   0  0  0  0  0  4           0  0  0
    2.2690   -1.1150    0.0000 C   0  0  0  0  0  4           0  0  0
    2.2653    1.1171   -0.0044 C   0  0  0  0  0  4           0  0  0
   -2.1395   -0.0382    5.3866 C   0  0  0  0  0  4           0  0  0
   -1.5933   -0.0262    4.0227 C   0  0  0  0  0  4           0  0  0
   -3.1915   -0.8843    5.8012 C   0  0  0  0  0  4           0  0  0
   -0.5425    0.0000    1.3966 C   0  0  0  0  0  4           0  0  0
   -1.6212    0.8553    6.3456 C   0  0  0  0  0  4           0  0  0
   -0.5245   -0.8631    3.6687 C   0  0  0  0  0  4           0  0  0
   -2.1307    0.8212    3.0426 C   0  0  0  0  0  4           0  0  0
   -3.7155   -0.8169    7.1003 C   0  0  0  0  0  4           0  0  0
   -0.0068   -0.8519    2.3702 C   0  0  0  0  0  4           0  0  0
   -1.6132    0.8328    1.7443 C   0  0  0  0  0  4           0  0  0
   -2.1340    0.9138    7.6451 C   0  0  0  0  0  4           0  0  0
   -3.1826    0.0812    8.0201 C   0  0  0  0  0  4           0  0  0
   -3.7990   -1.8937    4.9177 C   0  0  0  0  0  4           0  0  0
    1.7788    2.5157   -0.0058 C   0  0  0  0  0  4           0  0  0
    1.1753    4.2360   -1.5130 C   0  0  0  0  0  4           0  0  0
    0.0000   -0.0000    0.0000 C   0  0  0  0  0  4           0  0  0
    1.7865   -2.5211    0.0017 C   0  0  0  0  0  4           0  0  0
    2.5423   -3.3936    0.9988 C   0  0  0  0  0  4           0  0  0
    2.0795   -4.8504    1.0356 C   0  0  0  0  0  4           0  0  0
    2.8538   -5.6911    2.0399 C   0  0  0  0  0  4           0  0  0
  1  7  1  0     0  0
  2 22  2  0     0  0
  3 23  1  0     0  0
  3 24  1  0     0  0
  4 22  1  0     0  0
  5  8  1  0     0  0
  5  9  1  0     0  0
  5 25  1  0     0  0
  6  7  1  0     0  0
  6  8  2  0     0  0
  7  9  2  0     0  0
  8 26  1  0     0  0
  9 23  1  0     0  0
 10 11  1  0     0  0
 10 12  1  0     0  0
 10 14  2  0     0  0
 11 15  2  0     0  0
 11 16  1  0     0  0
 12 17  2  0     0  0
 12 22  1  0     0  0
 13 18  2  0     0  0
 13 19  1  0     0  0
 13 25  1  0     0  0
 14 20  1  0     0  0
 15 18  1  0     0  0
 16 19  2  0     0  0
 17 21  1  0     0  0
 20 21  2  0     0  0
 26 27  1  0     0  0
 27 28  1  0     0  0
 28 29  1  0     0  0
M  END
> <standard_type>
pIC50

> <# Confs.>
25

> <canonical_smiles>
ClC(N=C1CCCC)=C(COC)N1CC2=CC=C(C3=CC=CC=C3C(O)=O)C=C2

> <standard_relation>
=

> <Publication_ID>
nan

> <predicted_activity_value>
6.920818753952375

> <actual_activity_value>
7.00436480540245

> <Compound>
8

> <standard_units>
nM

> hash
1825488953729453991

$$$$
7
XXILIB    08252103503D 0   0.00000     0.00000

 29 31  0     1  0            999 V2000
    5.0074    1.4914    0.0122 Cl  0  0  0  0  0  1           0  0  0
   -3.1897   -2.8184    4.4073 O   0  0  0  0  0  2           0  0  0
    1.6404    2.9003   -1.3667 O   0  0  0  0  0  2           0  0  0
   -5.1185   -1.6530    4.7509 O   0  0  0  0  0  2           0  0  0
    1.4523   -0.0000   -0.0000 N   0  0  0  0  0  3           0  0  0
    3.5393   -0.7630    0.0025 N   0  0  0  0  0  3           0  0  0
    3.5500    0.6068    0.0019 C   0  0  0  0  0  4           0  0  0
    2.2690   -1.1150    0.0000 C   0  0  0  0  0  4           0  0  0
    2.2653    1.1171   -0.0044 C   0  0  0  0  0  4           0  0  0
   -2.1395   -0.0382    5.3866 C   0  0  0  0  0  4           0  0  0
   -1.5933   -0.0262    4.0227 C   0  0  0  0  0  4           0  0  0
   -3.1915   -0.8843    5.8012 C   0  0  0  0  0  4           0  0  0
   -0.5425    0.0000    1.3966 C   0  0  0  0  0  4           0  0  0
   -1.6212    0.8553    6.3456 C   0  0  0  0  0  4           0  0  0
   -0.5245   -0.8631    3.6687 C   0  0  0  0  0  4           0  0  0
   -2.1307    0.8212    3.0426 C   0  0  0  0  0  4           0  0  0
   -3.7155   -0.8169    7.1003 C   0  0  0  0  0  4           0  0  0
   -0.0068   -0.8519    2.3702 C   0  0  0  0  0  4           0  0  0
   -1.6132    0.8328    1.7443 C   0  0  0  0  0  4           0  0  0
   -2.1340    0.9138    7.6451 C   0  0  0  0  0  4           0  0  0
   -3.1826    0.0812    8.0201 C   0  0  0  0  0  4           0  0  0
   -3.7990   -1.8937    4.9177 C   0  0  0  0  0  4           0  0  0
    1.7788    2.5157   -0.0058 C   0  0  0  0  0  4           0  0  0
    1.1753    4.2360   -1.5130 C   0  0  0  0  0  4           0  0  0
    0.0000   -0.0000    0.0000 C   0  0  0  0  0  4           0  0  0
    1.7865   -2.5211    0.0017 C   0  0  0  0  0  4           0  0  0
    2.5423   -3.3936    0.9988 C   0  0  0  0  0  4           0  0  0
    2.0795   -4.8504    1.0356 C   0  0  0  0  0  4           0  0  0
    2.8538   -5.6911    2.0399 C   0  0  0  0  0  4           0  0  0
  1  7  1  0     0  0
  2 22  2  0     0  0
  3 23  1  0     0  0
  3 24  1  0     0  0
  4 22  1  0     0  0
  5  8  1  0     0  0
  5  9  1  0     0  0
  5 25  1  0     0  0
  6  7  1  0     0  0
  6  8  2  0     0  0
  7  9  2  0     0  0
  8 26  1  0     0  0
  9 23  1  0     0  0
 10 11  1  0     0  0
 10 12  1  0     0  0
 10 14  2  0     0  0
 11 15  2  0     0  0
 11 16  1  0     0  0
 12 17  2  0     0  0
 12 22  1  0     0  0
 13 18  2  0     0  0
 13 19  1  0     0  0
 13 25  1  0     0  0
 14 20  1  0     0  0
 15 18  1  0     0  0
 16 19  2  0     0  0
 17 21  1  0     0  0
 20 21  2  0     0  0
 26 27  1  0     0  0
 27 28  1  0     0  0
 28 29  1  0     0  0
M  END
> <standard_type>
pIC50

> <# Confs.>
25

> <canonical_smiles>
ClC(N=C1CCCC)=C(COC)N1CC2=CC=C(C3=CC=CC=C3C(O)=O)C=C2

> <standard_relation>
=

> <Publication_ID>
nan

> <predicted_activity_value>
6.920818753952375

> <actual_activity_value>
7.00436480540245

> <Compound>
8

> <standard_units>
nM

> hash
1825488953729453991

$$$$
7
XXILIB    08252103503D 0   0.00000     0.00000

 29 31  0     1  0            999 V2000
    5.0074    1.4914    0.0122 Cl  0  0  0  0  0  1           0  0  0
   -0.7206    2.7501    5.4450 O   0  0  0  0  0  2           0  0  0
    1.6404    2.9003   -1.3667 O   0  0  0  0  0  2           0  0  0
    0.4450    1.5680    7.0072 O   0  0  0  0  0  2           0  0  0
    1.4523   -0.0000   -0.0000 N   0  0  0  0  0  3           0  0  0
    3.5393   -0.7630    0.0025 N   0  0  0  0  0  3           0  0  0
    3.5500    0.6068    0.0019 C   0  0  0  0  0  4           0  0  0
    2.2690   -1.1150    0.0000 C   0  0  0  0  0  4           0  0  0
    2.2653    1.1171   -0.0044 C   0  0  0  0  0  4           0  0  0
   -2.1395   -0.0382    5.3866 C   0  0  0  0  0  4           0  0  0
   -1.5933   -0.0262    4.0227 C   0  0  0  0  0  4           0  0  0
   -1.6696    0.7952    6.4254 C   0  0  0  0  0  4           0  0  0
   -0.5425    0.0000    1.3966 C   0  0  0  0  0  4           0  0  0
   -3.1711   -0.9429    5.7091 C   0  0  0  0  0  4           0  0  0
   -0.5245   -0.8631    3.6687 C   0  0  0  0  0  4           0  0  0
   -2.1307    0.8212    3.0426 C   0  0  0  0  0  4           0  0  0
   -2.1867    0.7049    7.7259 C   0  0  0  0  0  4           0  0  0
   -0.0068   -0.8519    2.3702 C   0  0  0  0  0  4           0  0  0
   -1.6132    0.8328    1.7443 C   0  0  0  0  0  4           0  0  0
   -3.6966   -1.0242    7.0023 C   0  0  0  0  0  4           0  0  0
   -3.2017   -0.2038    8.0100 C   0  0  0  0  0  4           0  0  0
   -0.6264    1.8142    6.2208 C   0  0  0  0  0  4           0  0  0
    1.7788    2.5157   -0.0058 C   0  0  0  0  0  4           0  0  0
    1.1753    4.2360   -1.5130 C   0  0  0  0  0  4           0  0  0
    0.0000   -0.0000    0.0000 C   0  0  0  0  0  4           0  0  0
    1.7865   -2.5211    0.0017 C   0  0  0  0  0  4           0  0  0
    2.5400   -3.3953   -0.9956 C   0  0  0  0  0  4           0  0  0
    2.0772   -4.8522   -1.0289 C   0  0  0  0  0  4           0  0  0
    2.8491   -5.6945   -2.0335 C   0  0  0  0  0  4           0  0  0
  1  7  1  0     0  0
  2 22  2  0     0  0
  3 23  1  0     0  0
  3 24  1  0     0  0
  4 22  1  0     0  0
  5  8  1  0     0  0
  5  9  1  0     0  0
  5 25  1  0     0  0
  6  7  1  0     0  0
  6  8  2  0     0  0
  7  9  2  0     0  0
  8 26  1  0     0  0
  9 23  1  0     0  0
 10 11  1  0     0  0
 10 12  1  0     0  0
 10 14  2  0     0  0
 11 15  2  0     0  0
 11 16  1  0     0  0
 12 17  2  0     0  0
 12 22  1  0     0  0
 13 18  2  0     0  0
 13 19  1  0     0  0
 13 25  1  0     0  0
 14 20  1  0     0  0
 15 18  1  0     0  0
 16 19  2  0     0  0
 17 21  1  0     0  0
 20 21  2  0     0  0
 26 27  1  0     0  0
 27 28  1  0     0  0
 28 29  1  0     0  0
M  END
> <standard_type>
pIC50

> <# Confs.>
25

> <canonical_smiles>
ClC(N=C1CCCC)=C(COC)N1CC2=CC=C(C3=CC=CC=C3C(O)=O)C=C2

> <standard_relation>
=

> <Publication_ID>
nan

> <predicted_activity_value>
6.920818753952375

> <actual_activity_value>
7.00436480540245

> <Compound>
8

> <standard_units>
nM

> hash
1825488953729453991

$$$$
7
XXILIB    08252103503D 0   0.00000     0.00000

 29 31  0     1  0            999 V2000
    5.0074   -1.4914   -0.0122 Cl  0  0  0  0  0  1           0  0  0
   -0.3420   -2.5128    5.5965 O   0  0  0  0  0  2           0  0  0
    1.6478   -2.9056   -1.3543 O   0  0  0  0  0  2           0  0  0
   -2.4418   -3.3554    5.8753 O   0  0  0  0  0  2           0  0  0
    1.4523    0.0000    0.0000 N   0  0  0  0  0  3           0  0  0
    3.5393    0.7630   -0.0025 N   0  0  0  0  0  3           0  0  0
    3.5500   -0.6068   -0.0019 C   0  0  0  0  0  4           0  0  0
    2.2690    1.1150    0.0000 C   0  0  0  0  0  4           0  0  0
    2.2653   -1.1171    0.0044 C   0  0  0  0  0  4           0  0  0
   -2.1342    0.0438    5.3886 C   0  0  0  0  0  4           0  0  0
   -1.5911    0.0286    4.0236 C   0  0  0  0  0  4           0  0  0
   -2.1342   -1.0800    6.2438 C   0  0  0  0  0  4           0  0  0
   -0.5425    0.0000    1.3966 C   0  0  0  0  0  4           0  0  0
   -2.7193    1.2260    5.8856 C   0  0  0  0  0  4           0  0  0
   -2.1116   -0.8395    3.0522 C   0  0  0  0  0  4           0  0  0
   -0.5409    0.8844    3.6602 C   0  0  0  0  0  4           0  0  0
   -2.7167   -1.0291    7.5185 C   0  0  0  0  0  4           0  0  0
   -1.5950   -0.8519    1.7533 C   0  0  0  0  0  4           0  0  0
   -0.0240    0.8721    2.3617 C   0  0  0  0  0  4           0  0  0
   -3.2883    1.2815    7.1615 C   0  0  0  0  0  4           0  0  0
   -3.2903    0.1538    7.9750 C   0  0  0  0  0  4           0  0  0
   -1.5209   -2.3660    5.8715 C   0  0  0  0  0  4           0  0  0
    1.7788   -2.5157    0.0058 C   0  0  0  0  0  4           0  0  0
    1.1835   -4.2419   -1.4980 C   0  0  0  0  0  4           0  0  0
   -0.0000    0.0000    0.0000 C   0  0  0  0  0  4           0  0  0
    1.7865    2.5211   -0.0017 C   0  0  0  0  0  4           0  0  0
    2.5423    3.3936   -0.9988 C   0  0  0  0  0  4           0  0  0
    2.4340    2.9263   -2.4506 C   0  0  0  0  0  4           0  0  0
    3.1988    3.8184   -3.4171 C   0  0  0  0  0  4           0  0  0
  1  7  1  0     0  0
  2 22  2  0     0  0
  3 23  1  0     0  0
  3 24  1  0     0  0
  4 22  1  0     0  0
  5  8  1  0     0  0
  5  9  1  0     0  0
  5 25  1  0     0  0
  6  7  1  0     0  0
  6  8  2  0     0  0
  7  9  2  0     0  0
  8 26  1  0     0  0
  9 23  1  0     0  0
 10 11  1  0     0  0
 10 12  1  0     0  0
 10 14  2  0     0  0
 11 15  2  0     0  0
 11 16  1  0     0  0
 12 17  2  0     0  0
 12 22  1  0     0  0
 13 18  2  0     0  0
 13 19  1  0     0  0
 13 25  1  0     0  0
 14 20  1  0     0  0
 15 18  1  0     0  0
 16 19  2  0     0  0
 17 21  1  0     0  0
 20 21  2  0     0  0
 26 27  1  0     0  0
 27 28  1  0     0  0
 28 29  1  0     0  0
M  END
> <standard_type>
pIC50

> <# Confs.>
25

> <canonical_smiles>
ClC(N=C1CCCC)=C(COC)N1CC2=CC=C(C3=CC=CC=C3C(O)=O)C=C2

> <standard_relation>
=

> <Publication_ID>
nan

> <predicted_activity_value>
6.920818753952375

> <actual_activity_value>
7.00436480540245

> <Compound>
8

> <standard_units>
nM

> hash
1825488953729453991

$$$$
7
XXILIB    08252103503D 0   0.00000     0.00000

 29 31  0     1  0            999 V2000
    5.0074   -1.4914   -0.0122 Cl  0  0  0  0  0  1           0  0  0
   -3.4032    2.6589    4.2298 O   0  0  0  0  0  2           0  0  0
    1.6478   -2.9056   -1.3543 O   0  0  0  0  0  2           0  0  0
   -5.2361    1.4422    4.8267 O   0  0  0  0  0  2           0  0  0
    1.4523    0.0000    0.0000 N   0  0  0  0  0  3           0  0  0
    3.5393    0.7630   -0.0025 N   0  0  0  0  0  3           0  0  0
    3.5500   -0.6068   -0.0019 C   0  0  0  0  0  4           0  0  0
    2.2690    1.1150    0.0000 C   0  0  0  0  0  4           0  0  0
    2.2653   -1.1171    0.0044 C   0  0  0  0  0  4           0  0  0
   -2.1342    0.0438    5.3886 C   0  0  0  0  0  4           0  0  0
   -1.5911    0.0286    4.0236 C   0  0  0  0  0  4           0  0  0
   -3.2008    0.8743    5.7976 C   0  0  0  0  0  4           0  0  0
   -0.5425    0.0000    1.3966 C   0  0  0  0  0  4           0  0  0
   -1.5571   -0.7866    6.3705 C   0  0  0  0  0  4           0  0  0
   -2.1116   -0.8395    3.0522 C   0  0  0  0  0  4           0  0  0
   -0.5409    0.8844    3.6602 C   0  0  0  0  0  4           0  0  0
   -3.6452    0.8923    7.1276 C   0  0  0  0  0  4           0  0  0
   -1.5950   -0.8519    1.7533 C   0  0  0  0  0  4           0  0  0
   -0.0240    0.8721    2.3617 C   0  0  0  0  0  4           0  0  0
   -2.0085   -0.7791    7.6938 C   0  0  0  0  0  4           0  0  0
   -3.0486    0.0626    8.0722 C   0  0  0  0  0  4           0  0  0
   -3.9232    1.7605    4.8694 C   0  0  0  0  0  4           0  0  0
    1.7788   -2.5157    0.0058 C   0  0  0  0  0  4           0  0  0
    1.1835   -4.2419   -1.4980 C   0  0  0  0  0  4           0  0  0
   -0.0000    0.0000    0.0000 C   0  0  0  0  0  4           0  0  0
    1.7865    2.5211   -0.0017 C   0  0  0  0  0  4           0  0  0
    2.5423    3.3936   -0.9988 C   0  0  0  0  0  4           0  0  0
    2.0795    4.8504   -1.0356 C   0  0  0  0  0  4           0  0  0
    2.8538    5.6911   -2.0399 C   0  0  0  0  0  4           0  0  0
  1  7  1  0     0  0
  2 22  2  0     0  0
  3 23  1  0     0  0
  3 24  1  0     0  0
  4 22  1  0     0  0
  5  8  1  0     0  0
  5  9  1  0     0  0
  5 25  1  0     0  0
  6  7  1  0     0  0
  6  8  2  0     0  0
  7  9  2  0     0  0
  8 26  1  0     0  0
  9 23  1  0     0  0
 10 11  1  0     0  0
 10 12  1  0     0  0
 10 14  2  0     0  0
 11 15  2  0     0  0
 11 16  1  0     0  0
 12 17  2  0     0  0
 12 22  1  0     0  0
 13 18  2  0     0  0
 13 19  1  0     0  0
 13 25  1  0     0  0
 14 20  1  0     0  0
 15 18  1  0     0  0
 16 19  2  0     0  0
 17 21  1  0     0  0
 20 21  2  0     0  0
 26 27  1  0     0  0
 27 28  1  0     0  0
 28 29  1  0     0  0
M  END
> <standard_type>
pIC50

> <# Confs.>
25

> <canonical_smiles>
ClC(N=C1CCCC)=C(COC)N1CC2=CC=C(C3=CC=CC=C3C(O)=O)C=C2

> <standard_relation>
=

> <Publication_ID>
nan

> <predicted_activity_value>
6.920818753952375

> <actual_activity_value>
7.00436480540245

> <Compound>
8

> <standard_units>
nM

> hash
1825488953729453991

$$$$
7
XXILIB    08252103503D 0   0.00000     0.00000

 29 31  0     1  0            999 V2000
    5.0074   -1.4914   -0.0122 Cl  0  0  0  0  0  1           0  0  0
   -3.1897   -2.8184    4.4073 O   0  0  0  0  0  2           0  0  0
    1.6478   -2.9056   -1.3543 O   0  0  0  0  0  2           0  0  0
   -5.1185   -1.6530    4.7509 O   0  0  0  0  0  2           0  0  0
    1.4523    0.0000    0.0000 N   0  0  0  0  0  3           0  0  0
    3.5393    0.7630   -0.0025 N   0  0  0  0  0  3           0  0  0
    3.5500   -0.6068   -0.0019 C   0  0  0  0  0  4           0  0  0
    2.2690    1.1150    0.0000 C   0  0  0  0  0  4           0  0  0
    2.2653   -1.1171    0.0044 C   0  0  0  0  0  4           0  0  0
   -2.1395   -0.0382    5.3866 C   0  0  0  0  0  4           0  0  0
   -1.5933   -0.0262    4.0227 C   0  0  0  0  0  4           0  0  0
   -3.1915   -0.8843    5.8012 C   0  0  0  0  0  4           0  0  0
   -0.5425    0.0000    1.3966 C   0  0  0  0  0  4           0  0  0
   -1.6212    0.8553    6.3456 C   0  0  0  0  0  4           0  0  0
   -0.5245   -0.8631    3.6687 C   0  0  0  0  0  4           0  0  0
   -2.1307    0.8212    3.0426 C   0  0  0  0  0  4           0  0  0
   -3.7155   -0.8169    7.1003 C   0  0  0  0  0  4           0  0  0
   -0.0068   -0.8519    2.3702 C   0  0  0  0  0  4           0  0  0
   -1.6132    0.8328    1.7443 C   0  0  0  0  0  4           0  0  0
   -2.1340    0.9138    7.6451 C   0  0  0  0  0  4           0  0  0
   -3.1826    0.0812    8.0201 C   0  0  0  0  0  4           0  0  0
   -3.7990   -1.8937    4.9177 C   0  0  0  0  0  4           0  0  0
    1.7788   -2.5157    0.0058 C   0  0  0  0  0  4           0  0  0
    1.1835   -4.2419   -1.4980 C   0  0  0  0  0  4           0  0  0
    0.0000   -0.0000    0.0000 C   0  0  0  0  0  4           0  0  0
    1.7865    2.5211   -0.0017 C   0  0  0  0  0  4           0  0  0
    1.5995    3.0696   -1.4127 C   0  0  0  0  0  4           0  0  0
    1.1036    4.5150   -1.4641 C   0  0  0  0  0  4           0  0  0
    0.9283    5.0294   -2.8851 C   0  0  0  0  0  4           0  0  0
  1  7  1  0     0  0
  2 22  2  0     0  0
  3 23  1  0     0  0
  3 24  1  0     0  0
  4 22  1  0     0  0
  5  8  1  0     0  0
  5  9  1  0     0  0
  5 25  1  0     0  0
  6  7  1  0     0  0
  6  8  2  0     0  0
  7  9  2  0     0  0
  8 26  1  0     0  0
  9 23  1  0     0  0
 10 11  1  0     0  0
 10 12  1  0     0  0
 10 14  2  0     0  0
 11 15  2  0     0  0
 11 16  1  0     0  0
 12 17  2  0     0  0
 12 22  1  0     0  0
 13 18  2  0     0  0
 13 19  1  0     0  0
 13 25  1  0     0  0
 14 20  1  0     0  0
 15 18  1  0     0  0
 16 19  2  0     0  0
 17 21  1  0     0  0
 20 21  2  0     0  0
 26 27  1  0     0  0
 27 28  1  0     0  0
 28 29  1  0     0  0
M  END
> <standard_type>
pIC50

> <# Confs.>
25

> <canonical_smiles>
ClC(N=C1CCCC)=C(COC)N1CC2=CC=C(C3=CC=CC=C3C(O)=O)C=C2

> <standard_relation>
=

> <Publication_ID>
nan

> <predicted_activity_value>
6.920818753952375

> <actual_activity_value>
7.00436480540245

> <Compound>
8

> <standard_units>
nM

> hash
1825488953729453991

$$$$
7
XXILIB    08252103503D 0   0.00000     0.00000

 29 31  0     1  0            999 V2000
    5.0074   -1.4914   -0.0122 Cl  0  0  0  0  0  1           0  0  0
   -0.3420   -2.5128    5.5965 O   0  0  0  0  0  2           0  0  0
    1.6478   -2.9056   -1.3543 O   0  0  0  0  0  2           0  0  0
   -2.4418   -3.3554    5.8753 O   0  0  0  0  0  2           0  0  0
    1.4523    0.0000    0.0000 N   0  0  0  0  0  3           0  0  0
    3.5393    0.7630   -0.0025 N   0  0  0  0  0  3           0  0  0
    3.5500   -0.6068   -0.0019 C   0  0  0  0  0  4           0  0  0
    2.2690    1.1150    0.0000 C   0  0  0  0  0  4           0  0  0
    2.2653   -1.1171    0.0044 C   0  0  0  0  0  4           0  0  0
   -2.1342    0.0438    5.3886 C   0  0  0  0  0  4           0  0  0
   -1.5911    0.0286    4.0236 C   0  0  0  0  0  4           0  0  0
   -2.1342   -1.0800    6.2438 C   0  0  0  0  0  4           0  0  0
   -0.5425    0.0000    1.3966 C   0  0  0  0  0  4           0  0  0
   -2.7193    1.2260    5.8856 C   0  0  0  0  0  4           0  0  0
   -2.1116   -0.8395    3.0522 C   0  0  0  0  0  4           0  0  0
   -0.5409    0.8844    3.6602 C   0  0  0  0  0  4           0  0  0
   -2.7167   -1.0291    7.5185 C   0  0  0  0  0  4           0  0  0
   -1.5950   -0.8519    1.7533 C   0  0  0  0  0  4           0  0  0
   -0.0240    0.8721    2.3617 C   0  0  0  0  0  4           0  0  0
   -3.2883    1.2815    7.1615 C   0  0  0  0  0  4           0  0  0
   -3.2903    0.1538    7.9750 C   0  0  0  0  0  4           0  0  0
   -1.5209   -2.3660    5.8715 C   0  0  0  0  0  4           0  0  0
    1.7788   -2.5157    0.0058 C   0  0  0  0  0  4           0  0  0
    1.1835   -4.2419   -1.4980 C   0  0  0  0  0  4           0  0  0
   -0.0000    0.0000    0.0000 C   0  0  0  0  0  4           0  0  0
    1.7865    2.5211   -0.0017 C   0  0  0  0  0  4           0  0  0
    2.5423    3.3936   -0.9988 C   0  0  0  0  0  4           0  0  0
    2.0795    4.8504   -1.0356 C   0  0  0  0  0  4           0  0  0
    2.8538    5.6911   -2.0399 C   0  0  0  0  0  4           0  0  0
  1  7  1  0     0  0
  2 22  2  0     0  0
  3 23  1  0     0  0
  3 24  1  0     0  0
  4 22  1  0     0  0
  5  8  1  0     0  0
  5  9  1  0     0  0
  5 25  1  0     0  0
  6  7  1  0     0  0
  6  8  2  0     0  0
  7  9  2  0     0  0
  8 26  1  0     0  0
  9 23  1  0     0  0
 10 11  1  0     0  0
 10 12  1  0     0  0
 10 14  2  0     0  0
 11 15  2  0     0  0
 11 16  1  0     0  0
 12 17  2  0     0  0
 12 22  1  0     0  0
 13 18  2  0     0  0
 13 19  1  0     0  0
 13 25  1  0     0  0
 14 20  1  0     0  0
 15 18  1  0     0  0
 16 19  2  0     0  0
 17 21  1  0     0  0
 20 21  2  0     0  0
 26 27  1  0     0  0
 27 28  1  0     0  0
 28 29  1  0     0  0
M  END
> <standard_type>
pIC50

> <# Confs.>
25

> <canonical_smiles>
ClC(N=C1CCCC)=C(COC)N1CC2=CC=C(C3=CC=CC=C3C(O)=O)C=C2

> <standard_relation>
=

> <Publication_ID>
nan

> <predicted_activity_value>
6.920818753952375

> <actual_activity_value>
7.00436480540245

> <Compound>
8

> <standard_units>
nM

> hash
1825488953729453991

$$$$
7
XXILIB    08252103503D 0   0.00000     0.00000

 29 31  0     1  0            999 V2000
    5.0074    1.4914    0.0122 Cl  0  0  0  0  0  1           0  0  0
   -2.1079   -3.2694    5.3005 O   0  0  0  0  0  2           0  0  0
    1.6404    2.9003   -1.3667 O   0  0  0  0  0  2           0  0  0
   -0.2239   -2.4060    6.2501 O   0  0  0  0  0  2           0  0  0
    1.4523   -0.0000   -0.0000 N   0  0  0  0  0  3           0  0  0
    3.5393   -0.7630    0.0025 N   0  0  0  0  0  3           0  0  0
    3.5500    0.6068    0.0019 C   0  0  0  0  0  4           0  0  0
    2.2690   -1.1150    0.0000 C   0  0  0  0  0  4           0  0  0
    2.2653    1.1171   -0.0044 C   0  0  0  0  0  4           0  0  0
   -2.1342    0.0438    5.3886 C   0  0  0  0  0  4           0  0  0
   -1.5911    0.0286    4.0236 C   0  0  0  0  0  4           0  0  0
   -2.1342   -1.0800    6.2438 C   0  0  0  0  0  4           0  0  0
   -0.5425    0.0000    1.3966 C   0  0  0  0  0  4           0  0  0
   -2.7193    1.2260    5.8856 C   0  0  0  0  0  4           0  0  0
   -2.1116   -0.8395    3.0522 C   0  0  0  0  0  4           0  0  0
   -0.5409    0.8844    3.6602 C   0  0  0  0  0  4           0  0  0
   -2.7167   -1.0291    7.5185 C   0  0  0  0  0  4           0  0  0
   -1.5950   -0.8519    1.7533 C   0  0  0  0  0  4           0  0  0
   -0.0240    0.8721    2.3617 C   0  0  0  0  0  4           0  0  0
   -3.2883    1.2815    7.1615 C   0  0  0  0  0  4           0  0  0
   -3.2903    0.1538    7.9750 C   0  0  0  0  0  4           0  0  0
   -1.5209   -2.3660    5.8715 C   0  0  0  0  0  4           0  0  0
    1.7788    2.5157   -0.0058 C   0  0  0  0  0  4           0  0  0
    1.1753    4.2360   -1.5130 C   0  0  0  0  0  4           0  0  0
   -0.0000    0.0000    0.0000 C   0  0  0  0  0  4           0  0  0
    1.7865   -2.5211    0.0017 C   0  0  0  0  0  4           0  0  0
    1.5995   -3.0696    1.4127 C   0  0  0  0  0  4           0  0  0
    1.1036   -4.5150    1.4641 C   0  0  0  0  0  4           0  0  0
    0.9283   -5.0294    2.8851 C   0  0  0  0  0  4           0  0  0
  1  7  1  0     0  0
  2 22  2  0     0  0
  3 23  1  0     0  0
  3 24  1  0     0  0
  4 22  1  0     0  0
  5  8  1  0     0  0
  5  9  1  0     0  0
  5 25  1  0     0  0
  6  7  1  0     0  0
  6  8  2  0     0  0
  7  9  2  0     0  0
  8 26  1  0     0  0
  9 23  1  0     0  0
 10 11  1  0     0  0
 10 12  1  0     0  0
 10 14  2  0     0  0
 11 15  2  0     0  0
 11 16  1  0     0  0
 12 17  2  0     0  0
 12 22  1  0     0  0
 13 18  2  0     0  0
 13 19  1  0     0  0
 13 25  1  0     0  0
 14 20  1  0     0  0
 15 18  1  0     0  0
 16 19  2  0     0  0
 17 21  1  0     0  0
 20 21  2  0     0  0
 26 27  1  0     0  0
 27 28  1  0     0  0
 28 29  1  0     0  0
M  END
> <standard_type>
pIC50

> <# Confs.>
25

> <canonical_smiles>
ClC(N=C1CCCC)=C(COC)N1CC2=CC=C(C3=CC=CC=C3C(O)=O)C=C2

> <standard_relation>
=

> <Publication_ID>
nan

> <predicted_activity_value>
6.920818753952375

> <actual_activity_value>
7.00436480540245

> <Compound>
8

> <standard_units>
nM

> hash
1825488953729453991

$$$$
7
XXILIB    08252103503D 0   0.00000     0.00000

 29 31  0     1  0            999 V2000
    5.0074    1.4914    0.0122 Cl  0  0  0  0  0  1           0  0  0
   -4.3523   -1.6406    3.8611 O   0  0  0  0  0  2           0  0  0
    1.6404    2.9003   -1.3667 O   0  0  0  0  0  2           0  0  0
   -3.6600   -3.1330    5.4390 O   0  0  0  0  0  2           0  0  0
    1.4523   -0.0000   -0.0000 N   0  0  0  0  0  3           0  0  0
    3.5393   -0.7630    0.0025 N   0  0  0  0  0  3           0  0  0
    3.5500    0.6068    0.0019 C   0  0  0  0  0  4           0  0  0
    2.2690   -1.1150    0.0000 C   0  0  0  0  0  4           0  0  0
    2.2653    1.1171   -0.0044 C   0  0  0  0  0  4           0  0  0
   -2.1395   -0.0382    5.3866 C   0  0  0  0  0  4           0  0  0
   -1.5933   -0.0262    4.0227 C   0  0  0  0  0  4           0  0  0
   -3.1915   -0.8843    5.8012 C   0  0  0  0  0  4           0  0  0
   -0.5425    0.0000    1.3966 C   0  0  0  0  0  4           0  0  0
   -1.6212    0.8553    6.3456 C   0  0  0  0  0  4           0  0  0
   -0.5245   -0.8631    3.6687 C   0  0  0  0  0  4           0  0  0
   -2.1307    0.8212    3.0426 C   0  0  0  0  0  4           0  0  0
   -3.7155   -0.8169    7.1003 C   0  0  0  0  0  4           0  0  0
   -0.0068   -0.8519    2.3702 C   0  0  0  0  0  4           0  0  0
   -1.6132    0.8328    1.7443 C   0  0  0  0  0  4           0  0  0
   -2.1340    0.9138    7.6451 C   0  0  0  0  0  4           0  0  0
   -3.1826    0.0812    8.0201 C   0  0  0  0  0  4           0  0  0
   -3.7990   -1.8937    4.9177 C   0  0  0  0  0  4           0  0  0
    1.7788    2.5157   -0.0058 C   0  0  0  0  0  4           0  0  0
    1.1753    4.2360   -1.5130 C   0  0  0  0  0  4           0  0  0
    0.0000   -0.0000    0.0000 C   0  0  0  0  0  4           0  0  0
    1.7865   -2.5211    0.0017 C   0  0  0  0  0  4           0  0  0
    2.5400   -3.3953   -0.9956 C   0  0  0  0  0  4           0  0  0
    2.4284   -2.9304   -2.4480 C   0  0  0  0  0  4           0  0  0
    3.1910   -3.8241   -3.4146 C   0  0  0  0  0  4           0  0  0
  1  7  1  0     0  0
  2 22  2  0     0  0
  3 23  1  0     0  0
  3 24  1  0     0  0
  4 22  1  0     0  0
  5  8  1  0     0  0
  5  9  1  0     0  0
  5 25  1  0     0  0
  6  7  1  0     0  0
  6  8  2  0     0  0
  7  9  2  0     0  0
  8 26  1  0     0  0
  9 23  1  0     0  0
 10 11  1  0     0  0
 10 12  1  0     0  0
 10 14  2  0     0  0
 11 15  2  0     0  0
 11 16  1  0     0  0
 12 17  2  0     0  0
 12 22  1  0     0  0
 13 18  2  0     0  0
 13 19  1  0     0  0
 13 25  1  0     0  0
 14 20  1  0     0  0
 15 18  1  0     0  0
 16 19  2  0     0  0
 17 21  1  0     0  0
 20 21  2  0     0  0
 26 27  1  0     0  0
 27 28  1  0     0  0
 28 29  1  0     0  0
M  END
> <standard_type>
pIC50

> <# Confs.>
25

> <canonical_smiles>
ClC(N=C1CCCC)=C(COC)N1CC2=CC=C(C3=CC=CC=C3C(O)=O)C=C2

> <standard_relation>
=

> <Publication_ID>
nan

> <predicted_activity_value>
6.920818753952375

> <actual_activity_value>
7.00436480540245

> <Compound>
8

> <standard_units>
nM

> hash
1825488953729453991

$$$$
7
XXILIB    08252103503D 0   0.00000     0.00000

 29 31  0     1  0            999 V2000
    5.0074    1.4914    0.0122 Cl  0  0  0  0  0  1           0  0  0
   -3.1897   -2.8184    4.4073 O   0  0  0  0  0  2           0  0  0
    1.6404    2.9003   -1.3667 O   0  0  0  0  0  2           0  0  0
   -5.1185   -1.6530    4.7509 O   0  0  0  0  0  2           0  0  0
    1.4523   -0.0000   -0.0000 N   0  0  0  0  0  3           0  0  0
    3.5393   -0.7630    0.0025 N   0  0  0  0  0  3           0  0  0
    3.5500    0.6068    0.0019 C   0  0  0  0  0  4           0  0  0
    2.2690   -1.1150    0.0000 C   0  0  0  0  0  4           0  0  0
    2.2653    1.1171   -0.0044 C   0  0  0  0  0  4           0  0  0
   -2.1395   -0.0382    5.3866 C   0  0  0  0  0  4           0  0  0
   -1.5933   -0.0262    4.0227 C   0  0  0  0  0  4           0  0  0
   -3.1915   -0.8843    5.8012 C   0  0  0  0  0  4           0  0  0
   -0.5425    0.0000    1.3966 C   0  0  0  0  0  4           0  0  0
   -1.6212    0.8553    6.3456 C   0  0  0  0  0  4           0  0  0
   -0.5245   -0.8631    3.6687 C   0  0  0  0  0  4           0  0  0
   -2.1307    0.8212    3.0426 C   0  0  0  0  0  4           0  0  0
   -3.7155   -0.8169    7.1003 C   0  0  0  0  0  4           0  0  0
   -0.0068   -0.8519    2.3702 C   0  0  0  0  0  4           0  0  0
   -1.6132    0.8328    1.7443 C   0  0  0  0  0  4           0  0  0
   -2.1340    0.9138    7.6451 C   0  0  0  0  0  4           0  0  0
   -3.1826    0.0812    8.0201 C   0  0  0  0  0  4           0  0  0
   -3.7990   -1.8937    4.9177 C   0  0  0  0  0  4           0  0  0
    1.7788    2.5157   -0.0058 C   0  0  0  0  0  4           0  0  0
    1.1753    4.2360   -1.5130 C   0  0  0  0  0  4           0  0  0
    0.0000   -0.0000    0.0000 C   0  0  0  0  0  4           0  0  0
    1.7865   -2.5211    0.0017 C   0  0  0  0  0  4           0  0  0
    2.5400   -3.3953   -0.9956 C   0  0  0  0  0  4           0  0  0
    2.4284   -2.9304   -2.4480 C   0  0  0  0  0  4           0  0  0
    3.1910   -3.8241   -3.4146 C   0  0  0  0  0  4           0  0  0
  1  7  1  0     0  0
  2 22  2  0     0  0
  3 23  1  0     0  0
  3 24  1  0     0  0
  4 22  1  0     0  0
  5  8  1  0     0  0
  5  9  1  0     0  0
  5 25  1  0     0  0
  6  7  1  0     0  0
  6  8  2  0     0  0
  7  9  2  0     0  0
  8 26  1  0     0  0
  9 23  1  0     0  0
 10 11  1  0     0  0
 10 12  1  0     0  0
 10 14  2  0     0  0
 11 15  2  0     0  0
 11 16  1  0     0  0
 12 17  2  0     0  0
 12 22  1  0     0  0
 13 18  2  0     0  0
 13 19  1  0     0  0
 13 25  1  0     0  0
 14 20  1  0     0  0
 15 18  1  0     0  0
 16 19  2  0     0  0
 17 21  1  0     0  0
 20 21  2  0     0  0
 26 27  1  0     0  0
 27 28  1  0     0  0
 28 29  1  0     0  0
M  END
> <standard_type>
pIC50

> <# Confs.>
25

> <canonical_smiles>
ClC(N=C1CCCC)=C(COC)N1CC2=CC=C(C3=CC=CC=C3C(O)=O)C=C2

> <standard_relation>
=

> <Publication_ID>
nan

> <predicted_activity_value>
6.920818753952375

> <actual_activity_value>
7.00436480540245

> <Compound>
8

> <standard_units>
nM

> hash
1825488953729453991

$$$$
7
XXILIB    08252103503D 0   0.00000     0.00000

 29 31  0     1  0            999 V2000
    5.0074   -1.4914   -0.0122 Cl  0  0  0  0  0  1           0  0  0
    0.9197    0.8711    5.9123 O   0  0  0  0  0  2           0  0  0
    0.7380   -2.5888   -0.9589 O   0  0  0  0  0  2           0  0  0
   -0.2610    2.6193    6.7762 O   0  0  0  0  0  2           0  0  0
    1.4523   -0.0000   -0.0000 N   0  0  0  0  0  3           0  0  0
    3.5393    0.7630   -0.0025 N   0  0  0  0  0  3           0  0  0
    3.5500   -0.6068   -0.0019 C   0  0  0  0  0  4           0  0  0
    2.2690    1.1150    0.0000 C   0  0  0  0  0  4           0  0  0
    2.2653   -1.1171    0.0044 C   0  0  0  0  0  4           0  0  0
   -2.0446   -0.0040    5.4234 C   0  0  0  0  0  4           0  0  0
   -1.5306   -0.0017    4.0471 C   0  0  0  0  0  4           0  0  0
   -1.3710    0.5931    6.5117 C   0  0  0  0  0  4           0  0  0
   -0.5425    0.0000    1.3966 C   0  0  0  0  0  4           0  0  0
   -3.2617   -0.6569    5.7047 C   0  0  0  0  0  4           0  0  0
   -1.2915    1.2039    3.3707 C   0  0  0  0  0  4           0  0  0
   -1.2647   -1.2060    3.3790 C   0  0  0  0  0  4           0  0  0
   -1.8768    0.5138    7.8173 C   0  0  0  0  0  4           0  0  0
   -0.8009    1.2048    2.0617 C   0  0  0  0  0  4           0  0  0
   -0.7743   -1.2055    2.0702 C   0  0  0  0  0  4           0  0  0
   -3.7735   -0.7247    7.0041 C   0  0  0  0  0  4           0  0  0
   -3.0793   -0.1434    8.0593 C   0  0  0  0  0  4           0  0  0
   -0.1130    1.3428    6.3571 C   0  0  0  0  0  4           0  0  0
    1.7788   -2.5157    0.0058 C   0  0  0  0  0  4           0  0  0
    0.1768   -3.8913   -1.0604 C   0  0  0  0  0  4           0  0  0
    0.0000    0.0000    0.0000 C   0  0  0  0  0  4           0  0  0
    1.7865    2.5211   -0.0017 C   0  0  0  0  0  4           0  0  0
    2.5423    3.3936   -0.9988 C   0  0  0  0  0  4           0  0  0
    2.0795    4.8504   -1.0356 C   0  0  0  0  0  4           0  0  0
    2.8538    5.6911   -2.0399 C   0  0  0  0  0  4           0  0  0
  1  7  1  0     0  0
  2 22  2  0     0  0
  3 23  1  0     0  0
  3 24  1  0     0  0
  4 22  1  0     0  0
  5  8  1  0     0  0
  5  9  1  0     0  0
  5 25  1  0     0  0
  6  7  1  0     0  0
  6  8  2  0     0  0
  7  9  2  0     0  0
  8 26  1  0     0  0
  9 23  1  0     0  0
 10 11  1  0     0  0
 10 12  1  0     0  0
 10 14  2  0     0  0
 11 15  2  0     0  0
 11 16  1  0     0  0
 12 17  2  0     0  0
 12 22  1  0     0  0
 13 18  2  0     0  0
 13 19  1  0     0  0
 13 25  1  0     0  0
 14 20  1  0     0  0
 15 18  1  0     0  0
 16 19  2  0     0  0
 17 21  1  0     0  0
 20 21  2  0     0  0
 26 27  1  0     0  0
 27 28  1  0     0  0
 28 29  1  0     0  0
M  END
> <standard_type>
pIC50

> <# Confs.>
25

> <canonical_smiles>
ClC(N=C1CCCC)=C(COC)N1CC2=CC=C(C3=CC=CC=C3C(O)=O)C=C2

> <standard_relation>
=

> <Publication_ID>
nan

> <predicted_activity_value>
6.920818753952375

> <actual_activity_value>
7.00436480540245

> <Compound>
8

> <standard_units>
nM

> hash
1825488953729453991

$$$$
23
XXILIB    08252103513D 0   0.00000     0.00000

 22 23  0     1  0            999 V2000
   -3.5606    0.0112   -1.4761 Cl  0  0  0  0  0  1           0  0  0
    4.5849    5.6880   -0.5509 O   0  0  0  0  0  2           0  0  0
    2.6493    6.1585    0.5910 O   0  0  0  0  0  2           0  0  0
   -0.2009   -1.3853   -2.8936 O   0  0  0  0  0  2           0  0  0
    0.0000    0.0000    0.0000 N   0  0  0  0  0  3           0  0  0
   -2.0832    0.0069    0.7729 N   0  0  0  0  0  3           0  0  0
   -2.0995    0.0012   -0.5972 C   0  0  0  0  0  4           0  0  0
   -0.8115    0.0000    1.1181 C   0  0  0  0  0  4           0  0  0
   -0.8170   -0.0114   -1.1136 C   0  0  0  0  0  4           0  0  0
    3.0012    3.9964   -0.0241 C   0  0  0  0  0  4           0  0  0
    1.9920    1.3968    0.0000 C   0  0  0  0  0  4           0  0  0
    3.8867    2.9203   -0.0118 C   0  0  0  0  0  4           0  0  0
    1.6214    3.7992   -0.0391 C   0  0  0  0  0  4           0  0  0
    3.3778    1.6214   -0.0000 C   0  0  0  0  0  4           0  0  0
    1.1207    2.4973   -0.0269 C   0  0  0  0  0  4           0  0  0
    3.5293    5.3565   -0.0447 C   0  0  0  0  0  4           0  0  0
   -0.3376   -0.0246   -2.5112 C   0  0  0  0  0  4           0  0  0
    1.4499   -0.0000    0.0000 C   0  0  0  0  0  4           0  0  0
   -0.3158    0.0019    2.5213 C   0  0  0  0  0  4           0  0  0
   -0.1206   -1.4082    3.0704 C   0  0  0  0  0  4           0  0  0
    0.3875   -1.3773    4.5087 C   0  0  0  0  0  4           0  0  0
    0.5836   -2.7806    5.0601 C   0  0  0  0  0  4           0  0  0
  1  7  1  0     0  0
  2 16  2  0     0  0
  3 16  1  0     0  0
  4 17  1  0     0  0
  5  8  1  0     0  0
  5  9  1  0     0  0
  5 18  1  0     0  0
  6  7  1  0     0  0
  6  8  2  0     0  0
  7  9  2  0     0  0
  8 19  1  0     0  0
  9 17  1  0     0  0
 10 12  2  0     0  0
 10 13  1  0     0  0
 10 16  1  0     0  0
 11 14  2  0     0  0
 11 15  1  0     0  0
 11 18  1  0     0  0
 12 14  1  0     0  0
 13 15  2  0     0  0
 19 20  1  0     0  0
 20 21  1  0     0  0
 21 22  1  0     0  0
M  END
> <standard_type>
pIC50

> <# Confs.>
25

> <canonical_smiles>
CCCCC1=NC(Cl)=C(CO)N1CC2=CC=C(C(O)=O)C=C2

> <standard_relation>
=

> <Publication_ID>
nan

> <predicted_activity_value>
5.0

> <actual_activity_value>
4.0

> <Compound>
24

> <standard_units>
nM

> hash
15330608199569978610

$$$$
23
XXILIB    08252103513D 0   0.00000     0.00000

 22 23  0     1  0            999 V2000
   -3.5606    0.0112   -1.4761 Cl  0  0  0  0  0  1           0  0  0
    4.5849   -5.6880    0.5509 O   0  0  0  0  0  2           0  0  0
    2.6493   -6.1585   -0.5910 O   0  0  0  0  0  2           0  0  0
   -0.2030    1.3286   -2.9199 O   0  0  0  0  0  2           0  0  0
   -0.0000    0.0000    0.0000 N   0  0  0  0  0  3           0  0  0
   -2.0832    0.0069    0.7729 N   0  0  0  0  0  3           0  0  0
   -2.0995    0.0012   -0.5972 C   0  0  0  0  0  4           0  0  0
   -0.8115    0.0000    1.1181 C   0  0  0  0  0  4           0  0  0
   -0.8170   -0.0114   -1.1136 C   0  0  0  0  0  4           0  0  0
    3.0012   -3.9964    0.0241 C   0  0  0  0  0  4           0  0  0
    1.9920   -1.3968    0.0000 C   0  0  0  0  0  4           0  0  0
    3.8867   -2.9203    0.0118 C   0  0  0  0  0  4           0  0  0
    1.6214   -3.7992    0.0391 C   0  0  0  0  0  4           0  0  0
    3.3778   -1.6214    0.0000 C   0  0  0  0  0  4           0  0  0
    1.1207   -2.4973    0.0269 C   0  0  0  0  0  4           0  0  0
    3.5293   -5.3565    0.0447 C   0  0  0  0  0  4           0  0  0
   -0.3376   -0.0246   -2.5112 C   0  0  0  0  0  4           0  0  0
    1.4499    0.0000   -0.0000 C   0  0  0  0  0  4           0  0  0
   -0.3158    0.0019    2.5213 C   0  0  0  0  0  4           0  0  0
   -0.1240    1.4134    3.0679 C   0  0  0  0  0  4           0  0  0
    0.3841    1.3863    4.5062 C   0  0  0  0  0  4           0  0  0
    0.5767    2.7910    5.0552 C   0  0  0  0  0  4           0  0  0
  1  7  1  0     0  0
  2 16  2  0     0  0
  3 16  1  0     0  0
  4 17  1  0     0  0
  5  8  1  0     0  0
  5  9  1  0     0  0
  5 18  1  0     0  0
  6  7  1  0     0  0
  6  8  2  0     0  0
  7  9  2  0     0  0
  8 19  1  0     0  0
  9 17  1  0     0  0
 10 12  2  0     0  0
 10 13  1  0     0  0
 10 16  1  0     0  0
 11 14  2  0     0  0
 11 15  1  0     0  0
 11 18  1  0     0  0
 12 14  1  0     0  0
 13 15  2  0     0  0
 19 20  1  0     0  0
 20 21  1  0     0  0
 21 22  1  0     0  0
M  END
> <standard_type>
pIC50

> <# Confs.>
25

> <canonical_smiles>
CCCCC1=NC(Cl)=C(CO)N1CC2=CC=C(C(O)=O)C=C2

> <standard_relation>
=

> <Publication_ID>
nan

> <predicted_activity_value>
5.0

> <actual_activity_value>
4.0

> <Compound>
24

> <standard_units>
nM

> hash
15330608199569978610

$$$$
23
XXILIB    08252103513D 0   0.00000     0.00000

 22 23  0     1  0            999 V2000
   -3.5606    0.0112   -1.4761 Cl  0  0  0  0  0  1           0  0  0
    2.9761    6.3127   -0.5546 O   0  0  0  0  0  2           0  0  0
    4.7204    5.3543    0.5902 O   0  0  0  0  0  2           0  0  0
   -0.2009   -1.3853   -2.8936 O   0  0  0  0  0  2           0  0  0
    0.0000    0.0000    0.0000 N   0  0  0  0  0  3           0  0  0
   -2.0832    0.0069    0.7729 N   0  0  0  0  0  3           0  0  0
   -2.0995    0.0012   -0.5972 C   0  0  0  0  0  4           0  0  0
   -0.8115    0.0000    1.1181 C   0  0  0  0  0  4           0  0  0
   -0.8170   -0.0114   -1.1136 C   0  0  0  0  0  4           0  0  0
    3.0012    3.9964   -0.0241 C   0  0  0  0  0  4           0  0  0
    1.9920    1.3968    0.0000 C   0  0  0  0  0  4           0  0  0
    3.8867    2.9203   -0.0118 C   0  0  0  0  0  4           0  0  0
    1.6214    3.7992   -0.0391 C   0  0  0  0  0  4           0  0  0
    3.3778    1.6214   -0.0000 C   0  0  0  0  0  4           0  0  0
    1.1207    2.4973   -0.0269 C   0  0  0  0  0  4           0  0  0
    3.5293    5.3565   -0.0447 C   0  0  0  0  0  4           0  0  0
   -0.3376   -0.0246   -2.5112 C   0  0  0  0  0  4           0  0  0
    1.4499   -0.0000    0.0000 C   0  0  0  0  0  4           0  0  0
   -0.3158    0.0019    2.5213 C   0  0  0  0  0  4           0  0  0
   -0.1206   -1.4082    3.0704 C   0  0  0  0  0  4           0  0  0
    0.3875   -1.3773    4.5087 C   0  0  0  0  0  4           0  0  0
    0.5836   -2.7806    5.0601 C   0  0  0  0  0  4           0  0  0
  1  7  1  0     0  0
  2 16  2  0     0  0
  3 16  1  0     0  0
  4 17  1  0     0  0
  5  8  1  0     0  0
  5  9  1  0     0  0
  5 18  1  0     0  0
  6  7  1  0     0  0
  6  8  2  0     0  0
  7  9  2  0     0  0
  8 19  1  0     0  0
  9 17  1  0     0  0
 10 12  2  0     0  0
 10 13  1  0     0  0
 10 16  1  0     0  0
 11 14  2  0     0  0
 11 15  1  0     0  0
 11 18  1  0     0  0
 12 14  1  0     0  0
 13 15  2  0     0  0
 19 20  1  0     0  0
 20 21  1  0     0  0
 21 22  1  0     0  0
M  END
> <standard_type>
pIC50

> <# Confs.>
25

> <canonical_smiles>
CCCCC1=NC(Cl)=C(CO)N1CC2=CC=C(C(O)=O)C=C2

> <standard_relation>
=

> <Publication_ID>
nan

> <predicted_activity_value>
5.0

> <actual_activity_value>
4.0

> <Compound>
24

> <standard_units>
nM

> hash
15330608199569978610

$$$$
23
XXILIB    08252103513D 0   0.00000     0.00000

 22 23  0     1  0            999 V2000
   -3.5606    0.0112   -1.4761 Cl  0  0  0  0  0  1           0  0  0
    2.9792   -6.3266   -0.4417 O   0  0  0  0  0  2           0  0  0
    4.7134   -5.3375    0.6924 O   0  0  0  0  0  2           0  0  0
   -0.2030    1.3286   -2.9199 O   0  0  0  0  0  2           0  0  0
   -0.0000    0.0000    0.0000 N   0  0  0  0  0  3           0  0  0
   -2.0832    0.0069    0.7729 N   0  0  0  0  0  3           0  0  0
   -2.0995    0.0012   -0.5972 C   0  0  0  0  0  4           0  0  0
   -0.8115    0.0000    1.1181 C   0  0  0  0  0  4           0  0  0
   -0.8170   -0.0114   -1.1136 C   0  0  0  0  0  4           0  0  0
    3.0012   -3.9964    0.0241 C   0  0  0  0  0  4           0  0  0
    1.9920   -1.3968    0.0000 C   0  0  0  0  0  4           0  0  0
    3.8867   -2.9203    0.0118 C   0  0  0  0  0  4           0  0  0
    1.6214   -3.7992    0.0391 C   0  0  0  0  0  4           0  0  0
    3.3778   -1.6214    0.0000 C   0  0  0  0  0  4           0  0  0
    1.1207   -2.4973    0.0269 C   0  0  0  0  0  4           0  0  0
    3.5293   -5.3565    0.0447 C   0  0  0  0  0  4           0  0  0
   -0.3376   -0.0246   -2.5112 C   0  0  0  0  0  4           0  0  0
    1.4499    0.0000   -0.0000 C   0  0  0  0  0  4           0  0  0
   -0.3158    0.0019    2.5213 C   0  0  0  0  0  4           0  0  0
   -0.1240    1.4134    3.0679 C   0  0  0  0  0  4           0  0  0
    0.3841    1.3863    4.5062 C   0  0  0  0  0  4           0  0  0
    0.5767    2.7910    5.0552 C   0  0  0  0  0  4           0  0  0
  1  7  1  0     0  0
  2 16  2  0     0  0
  3 16  1  0     0  0
  4 17  1  0     0  0
  5  8  1  0     0  0
  5  9  1  0     0  0
  5 18  1  0     0  0
  6  7  1  0     0  0
  6  8  2  0     0  0
  7  9  2  0     0  0
  8 19  1  0     0  0
  9 17  1  0     0  0
 10 12  2  0     0  0
 10 13  1  0     0  0
 10 16  1  0     0  0
 11 14  2  0     0  0
 11 15  1  0     0  0
 11 18  1  0     0  0
 12 14  1  0     0  0
 13 15  2  0     0  0
 19 20  1  0     0  0
 20 21  1  0     0  0
 21 22  1  0     0  0
M  END
> <standard_type>
pIC50

> <# Confs.>
25

> <canonical_smiles>
CCCCC1=NC(Cl)=C(CO)N1CC2=CC=C(C(O)=O)C=C2

> <standard_relation>
=

> <Publication_ID>
nan

> <predicted_activity_value>
5.0

> <actual_activity_value>
4.0

> <Compound>
24

> <standard_units>
nM

> hash
15330608199569978610

$$$$
23
XXILIB    08252103513D 0   0.00000     0.00000

 22 23  0     1  0            999 V2000
   -3.5606    0.0112   -1.4761 Cl  0  0  0  0  0  1           0  0  0
    3.7325    6.0264   -0.9970 O   0  0  0  0  0  2           0  0  0
    3.6341    5.7666    1.2822 O   0  0  0  0  0  2           0  0  0
    0.7064   -0.9841   -2.5862 O   0  0  0  0  0  2           0  0  0
    0.0000   -0.0000    0.0000 N   0  0  0  0  0  3           0  0  0
   -2.0832    0.0069    0.7729 N   0  0  0  0  0  3           0  0  0
   -2.0995    0.0012   -0.5972 C   0  0  0  0  0  4           0  0  0
   -0.8115    0.0000    1.1181 C   0  0  0  0  0  4           0  0  0
   -0.8170   -0.0114   -1.1136 C   0  0  0  0  0  4           0  0  0
    2.9786    4.0052   -0.0002 C   0  0  0  0  0  4           0  0  0
    1.9920    1.3968    0.0000 C   0  0  0  0  0  4           0  0  0
    2.7429    3.3641   -1.2151 C   0  0  0  0  0  4           0  0  0
    2.7174    3.3739    1.2147 C   0  0  0  0  0  4           0  0  0
    2.2492    2.0594   -1.2106 C   0  0  0  0  0  4           0  0  0
    2.2241    2.0691    1.2104 C   0  0  0  0  0  4           0  0  0
    3.4872    5.3728   -0.0005 C   0  0  0  0  0  4           0  0  0
   -0.3376   -0.0246   -2.5112 C   0  0  0  0  0  4           0  0  0
    1.4499   -0.0000   -0.0000 C   0  0  0  0  0  4           0  0  0
   -0.3158    0.0019    2.5213 C   0  0  0  0  0  4           0  0  0
   -1.0617   -0.9959    3.4023 C   0  0  0  0  0  4           0  0  0
   -0.5343   -0.9734    4.8337 C   0  0  0  0  0  4           0  0  0
   -1.2748   -1.9663    5.7155 C   0  0  0  0  0  4           0  0  0
  1  7  1  0     0  0
  2 16  2  0     0  0
  3 16  1  0     0  0
  4 17  1  0     0  0
  5  8  1  0     0  0
  5  9  1  0     0  0
  5 18  1  0     0  0
  6  7  1  0     0  0
  6  8  2  0     0  0
  7  9  2  0     0  0
  8 19  1  0     0  0
  9 17  1  0     0  0
 10 12  2  0     0  0
 10 13  1  0     0  0
 10 16  1  0     0  0
 11 14  2  0     0  0
 11 15  1  0     0  0
 11 18  1  0     0  0
 12 14  1  0     0  0
 13 15  2  0     0  0
 19 20  1  0     0  0
 20 21  1  0     0  0
 21 22  1  0     0  0
M  END
> <standard_type>
pIC50

> <# Confs.>
25

> <canonical_smiles>
CCCCC1=NC(Cl)=C(CO)N1CC2=CC=C(C(O)=O)C=C2

> <standard_relation>
=

> <Publication_ID>
nan

> <predicted_activity_value>
5.0

> <actual_activity_value>
4.0

> <Compound>
24

> <standard_units>
nM

> hash
15330608199569978610

$$$$
23
XXILIB    08252103513D 0   0.00000     0.00000

 22 23  0     1  0            999 V2000
   -3.5606    0.0112   -1.4761 Cl  0  0  0  0  0  1           0  0  0
    4.1959    5.8544    0.8634 O   0  0  0  0  0  2           0  0  0
    3.0320    5.9900   -1.1112 O   0  0  0  0  0  2           0  0  0
    0.7064   -0.9841   -2.5862 O   0  0  0  0  0  2           0  0  0
    0.0000   -0.0000    0.0000 N   0  0  0  0  0  3           0  0  0
   -2.0832    0.0069    0.7729 N   0  0  0  0  0  3           0  0  0
   -2.0995    0.0012   -0.5972 C   0  0  0  0  0  4           0  0  0
   -0.8115    0.0000    1.1181 C   0  0  0  0  0  4           0  0  0
   -0.8170   -0.0114   -1.1136 C   0  0  0  0  0  4           0  0  0
    2.9786    4.0052   -0.0002 C   0  0  0  0  0  4           0  0  0
    1.9920    1.3968    0.0000 C   0  0  0  0  0  4           0  0  0
    2.7429    3.3641   -1.2151 C   0  0  0  0  0  4           0  0  0
    2.7174    3.3739    1.2147 C   0  0  0  0  0  4           0  0  0
    2.2492    2.0594   -1.2106 C   0  0  0  0  0  4           0  0  0
    2.2241    2.0691    1.2104 C   0  0  0  0  0  4           0  0  0
    3.4872    5.3728   -0.0005 C   0  0  0  0  0  4           0  0  0
   -0.3376   -0.0246   -2.5112 C   0  0  0  0  0  4           0  0  0
    1.4499   -0.0000   -0.0000 C   0  0  0  0  0  4           0  0  0
   -0.3158    0.0019    2.5213 C   0  0  0  0  0  4           0  0  0
   -1.0617   -0.9959    3.4023 C   0  0  0  0  0  4           0  0  0
   -0.5343   -0.9734    4.8337 C   0  0  0  0  0  4           0  0  0
   -1.2748   -1.9663    5.7155 C   0  0  0  0  0  4           0  0  0
  1  7  1  0     0  0
  2 16  2  0     0  0
  3 16  1  0     0  0
  4 17  1  0     0  0
  5  8  1  0     0  0
  5  9  1  0     0  0
  5 18  1  0     0  0
  6  7  1  0     0  0
  6  8  2  0     0  0
  7  9  2  0     0  0
  8 19  1  0     0  0
  9 17  1  0     0  0
 10 12  2  0     0  0
 10 13  1  0     0  0
 10 16  1  0     0  0
 11 14  2  0     0  0
 11 15  1  0     0  0
 11 18  1  0     0  0
 12 14  1  0     0  0
 13 15  2  0     0  0
 19 20  1  0     0  0
 20 21  1  0     0  0
 21 22  1  0     0  0
M  END
> <standard_type>
pIC50

> <# Confs.>
25

> <canonical_smiles>
CCCCC1=NC(Cl)=C(CO)N1CC2=CC=C(C(O)=O)C=C2

> <standard_relation>
=

> <Publication_ID>
nan

> <predicted_activity_value>
5.0

> <actual_activity_value>
4.0

> <Compound>
24

> <standard_units>
nM

> hash
15330608199569978610

$$$$
23
XXILIB    08252103513D 0   0.00000     0.00000

 22 23  0     1  0            999 V2000
   -3.5606    0.0112   -1.4761 Cl  0  0  0  0  0  1           0  0  0
    3.7287   -6.0282   -0.9958 O   0  0  0  0  0  2           0  0  0
    3.6331   -5.7665    1.2833 O   0  0  0  0  0  2           0  0  0
    0.7050    0.9349   -2.6048 O   0  0  0  0  0  2           0  0  0
   -0.0000    0.0000    0.0000 N   0  0  0  0  0  3           0  0  0
   -2.0832    0.0069    0.7729 N   0  0  0  0  0  3           0  0  0
   -2.0995    0.0012   -0.5972 C   0  0  0  0  0  4           0  0  0
   -0.8115   -0.0000    1.1181 C   0  0  0  0  0  4           0  0  0
   -0.8170   -0.0114   -1.1136 C   0  0  0  0  0  4           0  0  0
    2.9786   -4.0052    0.0002 C   0  0  0  0  0  4           0  0  0
    1.9920   -1.3968    0.0000 C   0  0  0  0  0  4           0  0  0
    2.7429   -3.3641    1.2151 C   0  0  0  0  0  4           0  0  0
    2.7174   -3.3739   -1.2147 C   0  0  0  0  0  4           0  0  0
    2.2492   -2.0594    1.2106 C   0  0  0  0  0  4           0  0  0
    2.2241   -2.0691   -1.2104 C   0  0  0  0  0  4           0  0  0
    3.4872   -5.3728    0.0005 C   0  0  0  0  0  4           0  0  0
   -0.3376   -0.0246   -2.5112 C   0  0  0  0  0  4           0  0  0
    1.4499    0.0000    0.0000 C   0  0  0  0  0  4           0  0  0
   -0.3158    0.0019    2.5213 C   0  0  0  0  0  4           0  0  0
   -1.0641    0.9993    3.4005 C   0  0  0  0  0  4           0  0  0
   -0.5367    0.9807    4.8320 C   0  0  0  0  0  4           0  0  0
   -1.2796    1.9734    5.7120 C   0  0  0  0  0  4           0  0  0
  1  7  1  0     0  0
  2 16  2  0     0  0
  3 16  1  0     0  0
  4 17  1  0     0  0
  5  8  1  0     0  0
  5  9  1  0     0  0
  5 18  1  0     0  0
  6  7  1  0     0  0
  6  8  2  0     0  0
  7  9  2  0     0  0
  8 19  1  0     0  0
  9 17  1  0     0  0
 10 12  2  0     0  0
 10 13  1  0     0  0
 10 16  1  0     0  0
 11 14  2  0     0  0
 11 15  1  0     0  0
 11 18  1  0     0  0
 12 14  1  0     0  0
 13 15  2  0     0  0
 19 20  1  0     0  0
 20 21  1  0     0  0
 21 22  1  0     0  0
M  END
> <standard_type>
pIC50

> <# Confs.>
25

> <canonical_smiles>
CCCCC1=NC(Cl)=C(CO)N1CC2=CC=C(C(O)=O)C=C2

> <standard_relation>
=

> <Publication_ID>
nan

> <predicted_activity_value>
5.0

> <actual_activity_value>
4.0

> <Compound>
24

> <standard_units>
nM

> hash
15330608199569978610

$$$$
23
XXILIB    08252103513D 0   0.00000     0.00000

 22 23  0     1  0            999 V2000
   -3.5606    0.0112   -1.4761 Cl  0  0  0  0  0  1           0  0  0
    4.5849    5.6880   -0.5509 O   0  0  0  0  0  2           0  0  0
    2.6493    6.1585    0.5910 O   0  0  0  0  0  2           0  0  0
   -0.2009   -1.3853   -2.8936 O   0  0  0  0  0  2           0  0  0
    0.0000   -0.0000    0.0000 N   0  0  0  0  0  3           0  0  0
   -2.0832    0.0069    0.7729 N   0  0  0  0  0  3           0  0  0
   -2.0995    0.0012   -0.5972 C   0  0  0  0  0  4           0  0  0
   -0.8115   -0.0000    1.1181 C   0  0  0  0  0  4           0  0  0
   -0.8170   -0.0114   -1.1136 C   0  0  0  0  0  4           0  0  0
    3.0012    3.9964   -0.0241 C   0  0  0  0  0  4           0  0  0
    1.9920    1.3968    0.0000 C   0  0  0  0  0  4           0  0  0
    3.8867    2.9203   -0.0118 C   0  0  0  0  0  4           0  0  0
    1.6214    3.7992   -0.0391 C   0  0  0  0  0  4           0  0  0
    3.3778    1.6214   -0.0000 C   0  0  0  0  0  4           0  0  0
    1.1207    2.4973   -0.0269 C   0  0  0  0  0  4           0  0  0
    3.5293    5.3565   -0.0447 C   0  0  0  0  0  4           0  0  0
   -0.3376   -0.0246   -2.5112 C   0  0  0  0  0  4           0  0  0
    1.4499   -0.0000    0.0000 C   0  0  0  0  0  4           0  0  0
   -0.3158    0.0019    2.5213 C   0  0  0  0  0  4           0  0  0
   -1.4525    0.0014    3.5390 C   0  0  0  0  0  4           0  0  0
   -0.9171    0.0033    4.9677 C   0  0  0  0  0  4           0  0  0
   -2.0466    0.0028    5.9855 C   0  0  0  0  0  4           0  0  0
  1  7  1  0     0  0
  2 16  2  0     0  0
  3 16  1  0     0  0
  4 17  1  0     0  0
  5  8  1  0     0  0
  5  9  1  0     0  0
  5 18  1  0     0  0
  6  7  1  0     0  0
  6  8  2  0     0  0
  7  9  2  0     0  0
  8 19  1  0     0  0
  9 17  1  0     0  0
 10 12  2  0     0  0
 10 13  1  0     0  0
 10 16  1  0     0  0
 11 14  2  0     0  0
 11 15  1  0     0  0
 11 18  1  0     0  0
 12 14  1  0     0  0
 13 15  2  0     0  0
 19 20  1  0     0  0
 20 21  1  0     0  0
 21 22  1  0     0  0
M  END
> <standard_type>
pIC50

> <# Confs.>
25

> <canonical_smiles>
CCCCC1=NC(Cl)=C(CO)N1CC2=CC=C(C(O)=O)C=C2

> <standard_relation>
=

> <Publication_ID>
nan

> <predicted_activity_value>
5.0

> <actual_activity_value>
4.0

> <Compound>
24

> <standard_units>
nM

> hash
15330608199569978610

$$$$
23
XXILIB    08252103513D 0   0.00000     0.00000

 22 23  0     1  0            999 V2000
   -3.5606    0.0112   -1.4761 Cl  0  0  0  0  0  1           0  0  0
    4.1992   -5.8529    0.8624 O   0  0  0  0  0  2           0  0  0
    3.0329   -5.9901   -1.1106 O   0  0  0  0  0  2           0  0  0
    0.7050    0.9349   -2.6048 O   0  0  0  0  0  2           0  0  0
   -0.0000    0.0000    0.0000 N   0  0  0  0  0  3           0  0  0
   -2.0832    0.0069    0.7729 N   0  0  0  0  0  3           0  0  0
   -2.0995    0.0012   -0.5972 C   0  0  0  0  0  4           0  0  0
   -0.8115   -0.0000    1.1181 C   0  0  0  0  0  4           0  0  0
   -0.8170   -0.0114   -1.1136 C   0  0  0  0  0  4           0  0  0
    2.9786   -4.0052    0.0002 C   0  0  0  0  0  4           0  0  0
    1.9920   -1.3968    0.0000 C   0  0  0  0  0  4           0  0  0
    2.7429   -3.3641    1.2151 C   0  0  0  0  0  4           0  0  0
    2.7174   -3.3739   -1.2147 C   0  0  0  0  0  4           0  0  0
    2.2492   -2.0594    1.2106 C   0  0  0  0  0  4           0  0  0
    2.2241   -2.0691   -1.2104 C   0  0  0  0  0  4           0  0  0
    3.4872   -5.3728    0.0005 C   0  0  0  0  0  4           0  0  0
   -0.3376   -0.0246   -2.5112 C   0  0  0  0  0  4           0  0  0
    1.4499    0.0000    0.0000 C   0  0  0  0  0  4           0  0  0
   -0.3158    0.0019    2.5213 C   0  0  0  0  0  4           0  0  0
   -1.0641    0.9993    3.4005 C   0  0  0  0  0  4           0  0  0
   -0.5367    0.9807    4.8320 C   0  0  0  0  0  4           0  0  0
   -1.2796    1.9734    5.7120 C   0  0  0  0  0  4           0  0  0
  1  7  1  0     0  0
  2 16  2  0     0  0
  3 16  1  0     0  0
  4 17  1  0     0  0
  5  8  1  0     0  0
  5  9  1  0     0  0
  5 18  1  0     0  0
  6  7  1  0     0  0
  6  8  2  0     0  0
  7  9  2  0     0  0
  8 19  1  0     0  0
  9 17  1  0     0  0
 10 12  2  0     0  0
 10 13  1  0     0  0
 10 16  1  0     0  0
 11 14  2  0     0  0
 11 15  1  0     0  0
 11 18  1  0     0  0
 12 14  1  0     0  0
 13 15  2  0     0  0
 19 20  1  0     0  0
 20 21  1  0     0  0
 21 22  1  0     0  0
M  END
> <standard_type>
pIC50

> <# Confs.>
25

> <canonical_smiles>
CCCCC1=NC(Cl)=C(CO)N1CC2=CC=C(C(O)=O)C=C2

> <standard_relation>
=

> <Publication_ID>
nan

> <predicted_activity_value>
5.0

> <actual_activity_value>
4.0

> <Compound>
24

> <standard_units>
nM

> hash
15330608199569978610

$$$$
23
XXILIB    08252103513D 0   0.00000     0.00000

 22 23  0     1  0            999 V2000
   -3.5606    0.0112   -1.4761 Cl  0  0  0  0  0  1           0  0  0
    4.5849   -5.6880    0.5509 O   0  0  0  0  0  2           0  0  0
    2.6493   -6.1585   -0.5910 O   0  0  0  0  0  2           0  0  0
   -0.2030    1.3286   -2.9199 O   0  0  0  0  0  2           0  0  0
    0.0000   -0.0000    0.0000 N   0  0  0  0  0  3           0  0  0
   -2.0832    0.0069    0.7729 N   0  0  0  0  0  3           0  0  0
   -2.0995    0.0012   -0.5972 C   0  0  0  0  0  4           0  0  0
   -0.8115   -0.0000    1.1181 C   0  0  0  0  0  4           0  0  0
   -0.8170   -0.0114   -1.1136 C   0  0  0  0  0  4           0  0  0
    3.0012   -3.9964    0.0241 C   0  0  0  0  0  4           0  0  0
    1.9920   -1.3968    0.0000 C   0  0  0  0  0  4           0  0  0
    3.8867   -2.9203    0.0118 C   0  0  0  0  0  4           0  0  0
    1.6214   -3.7992    0.0391 C   0  0  0  0  0  4           0  0  0
    3.3778   -1.6214    0.0000 C   0  0  0  0  0  4           0  0  0
    1.1207   -2.4973    0.0269 C   0  0  0  0  0  4           0  0  0
    3.5293   -5.3565    0.0447 C   0  0  0  0  0  4           0  0  0
   -0.3376   -0.0246   -2.5112 C   0  0  0  0  0  4           0  0  0
    1.4499    0.0000   -0.0000 C   0  0  0  0  0  4           0  0  0
   -0.3158    0.0019    2.5213 C   0  0  0  0  0  4           0  0  0
   -1.4525    0.0014    3.5390 C   0  0  0  0  0  4           0  0  0
   -0.9171    0.0033    4.9677 C   0  0  0  0  0  4           0  0  0
   -2.0466    0.0028    5.9855 C   0  0  0  0  0  4           0  0  0
  1  7  1  0     0  0
  2 16  2  0     0  0
  3 16  1  0     0  0
  4 17  1  0     0  0
  5  8  1  0     0  0
  5  9  1  0     0  0
  5 18  1  0     0  0
  6  7  1  0     0  0
  6  8  2  0     0  0
  7  9  2  0     0  0
  8 19  1  0     0  0
  9 17  1  0     0  0
 10 12  2  0     0  0
 10 13  1  0     0  0
 10 16  1  0     0  0
 11 14  2  0     0  0
 11 15  1  0     0  0
 11 18  1  0     0  0
 12 14  1  0     0  0
 13 15  2  0     0  0
 19 20  1  0     0  0
 20 21  1  0     0  0
 21 22  1  0     0  0
M  END
> <standard_type>
pIC50

> <# Confs.>
25

> <canonical_smiles>
CCCCC1=NC(Cl)=C(CO)N1CC2=CC=C(C(O)=O)C=C2

> <standard_relation>
=

> <Publication_ID>
nan

> <predicted_activity_value>
5.0

> <actual_activity_value>
4.0

> <Compound>
24

> <standard_units>
nM

> hash
15330608199569978610

$$$$
23
XXILIB    08252103513D 0   0.00000     0.00000

 22 23  0     1  0            999 V2000
   -3.5606    0.0112   -1.4761 Cl  0  0  0  0  0  1           0  0  0
    3.7325    6.0264   -0.9970 O   0  0  0  0  0  2           0  0  0
    3.6341    5.7666    1.2822 O   0  0  0  0  0  2           0  0  0
    0.7064   -0.9841   -2.5862 O   0  0  0  0  0  2           0  0  0
    0.0000   -0.0000    0.0000 N   0  0  0  0  0  3           0  0  0
   -2.0832    0.0069    0.7729 N   0  0  0  0  0  3           0  0  0
   -2.0995    0.0012   -0.5972 C   0  0  0  0  0  4           0  0  0
   -0.8115    0.0000    1.1181 C   0  0  0  0  0  4           0  0  0
   -0.8170   -0.0114   -1.1136 C   0  0  0  0  0  4           0  0  0
    2.9786    4.0052   -0.0002 C   0  0  0  0  0  4           0  0  0
    1.9920    1.3968    0.0000 C   0  0  0  0  0  4           0  0  0
    2.7429    3.3641   -1.2151 C   0  0  0  0  0  4           0  0  0
    2.7174    3.3739    1.2147 C   0  0  0  0  0  4           0  0  0
    2.2492    2.0594   -1.2106 C   0  0  0  0  0  4           0  0  0
    2.2241    2.0691    1.2104 C   0  0  0  0  0  4           0  0  0
    3.4872    5.3728   -0.0005 C   0  0  0  0  0  4           0  0  0
   -0.3376   -0.0246   -2.5112 C   0  0  0  0  0  4           0  0  0
    1.4499   -0.0000   -0.0000 C   0  0  0  0  0  4           0  0  0
   -0.3158    0.0019    2.5213 C   0  0  0  0  0  4           0  0  0
   -1.0617   -0.9959    3.4023 C   0  0  0  0  0  4           0  0  0
   -0.9098   -2.4203    2.8772 C   0  0  0  0  0  4           0  0  0
   -1.6516   -3.4182    3.7522 C   0  0  0  0  0  4           0  0  0
  1  7  1  0     0  0
  2 16  2  0     0  0
  3 16  1  0     0  0
  4 17  1  0     0  0
  5  8  1  0     0  0
  5  9  1  0     0  0
  5 18  1  0     0  0
  6  7  1  0     0  0
  6  8  2  0     0  0
  7  9  2  0     0  0
  8 19  1  0     0  0
  9 17  1  0     0  0
 10 12  2  0     0  0
 10 13  1  0     0  0
 10 16  1  0     0  0
 11 14  2  0     0  0
 11 15  1  0     0  0
 11 18  1  0     0  0
 12 14  1  0     0  0
 13 15  2  0     0  0
 19 20  1  0     0  0
 20 21  1  0     0  0
 21 22  1  0     0  0
M  END
> <standard_type>
pIC50

> <# Confs.>
25

> <canonical_smiles>
CCCCC1=NC(Cl)=C(CO)N1CC2=CC=C(C(O)=O)C=C2

> <standard_relation>
=

> <Publication_ID>
nan

> <predicted_activity_value>
5.0

> <actual_activity_value>
4.0

> <Compound>
24

> <standard_units>
nM

> hash
15330608199569978610

$$$$
23
XXILIB    08252103513D 0   0.00000     0.00000

 22 23  0     1  0            999 V2000
   -3.5606    0.0112   -1.4761 Cl  0  0  0  0  0  1           0  0  0
    2.9761    6.3127   -0.5546 O   0  0  0  0  0  2           0  0  0
    4.7204    5.3543    0.5902 O   0  0  0  0  0  2           0  0  0
   -0.2009   -1.3853   -2.8936 O   0  0  0  0  0  2           0  0  0
    0.0000   -0.0000    0.0000 N   0  0  0  0  0  3           0  0  0
   -2.0832    0.0069    0.7729 N   0  0  0  0  0  3           0  0  0
   -2.0995    0.0012   -0.5972 C   0  0  0  0  0  4           0  0  0
   -0.8115   -0.0000    1.1181 C   0  0  0  0  0  4           0  0  0
   -0.8170   -0.0114   -1.1136 C   0  0  0  0  0  4           0  0  0
    3.0012    3.9964   -0.0241 C   0  0  0  0  0  4           0  0  0
    1.9920    1.3968    0.0000 C   0  0  0  0  0  4           0  0  0
    3.8867    2.9203   -0.0118 C   0  0  0  0  0  4           0  0  0
    1.6214    3.7992   -0.0391 C   0  0  0  0  0  4           0  0  0
    3.3778    1.6214   -0.0000 C   0  0  0  0  0  4           0  0  0
    1.1207    2.4973   -0.0269 C   0  0  0  0  0  4           0  0  0
    3.5293    5.3565   -0.0447 C   0  0  0  0  0  4           0  0  0
   -0.3376   -0.0246   -2.5112 C   0  0  0  0  0  4           0  0  0
    1.4499   -0.0000    0.0000 C   0  0  0  0  0  4           0  0  0
   -0.3158    0.0019    2.5213 C   0  0  0  0  0  4           0  0  0
   -1.4525    0.0014    3.5390 C   0  0  0  0  0  4           0  0  0
   -0.9171    0.0033    4.9677 C   0  0  0  0  0  4           0  0  0
   -2.0466    0.0028    5.9855 C   0  0  0  0  0  4           0  0  0
  1  7  1  0     0  0
  2 16  2  0     0  0
  3 16  1  0     0  0
  4 17  1  0     0  0
  5  8  1  0     0  0
  5  9  1  0     0  0
  5 18  1  0     0  0
  6  7  1  0     0  0
  6  8  2  0     0  0
  7  9  2  0     0  0
  8 19  1  0     0  0
  9 17  1  0     0  0
 10 12  2  0     0  0
 10 13  1  0     0  0
 10 16  1  0     0  0
 11 14  2  0     0  0
 11 15  1  0     0  0
 11 18  1  0     0  0
 12 14  1  0     0  0
 13 15  2  0     0  0
 19 20  1  0     0  0
 20 21  1  0     0  0
 21 22  1  0     0  0
M  END
> <standard_type>
pIC50

> <# Confs.>
25

> <canonical_smiles>
CCCCC1=NC(Cl)=C(CO)N1CC2=CC=C(C(O)=O)C=C2

> <standard_relation>
=

> <Publication_ID>
nan

> <predicted_activity_value>
5.0

> <actual_activity_value>
4.0

> <Compound>
24

> <standard_units>
nM

> hash
15330608199569978610

$$$$
23
XXILIB    08252103513D 0   0.00000     0.00000

 22 23  0     1  0            999 V2000
   -3.5606    0.0112   -1.4761 Cl  0  0  0  0  0  1           0  0  0
    4.1959    5.8544    0.8634 O   0  0  0  0  0  2           0  0  0
    3.0320    5.9900   -1.1112 O   0  0  0  0  0  2           0  0  0
    0.7064   -0.9841   -2.5862 O   0  0  0  0  0  2           0  0  0
    0.0000   -0.0000    0.0000 N   0  0  0  0  0  3           0  0  0
   -2.0832    0.0069    0.7729 N   0  0  0  0  0  3           0  0  0
   -2.0995    0.0012   -0.5972 C   0  0  0  0  0  4           0  0  0
   -0.8115    0.0000    1.1181 C   0  0  0  0  0  4           0  0  0
   -0.8170   -0.0114   -1.1136 C   0  0  0  0  0  4           0  0  0
    2.9786    4.0052   -0.0002 C   0  0  0  0  0  4           0  0  0
    1.9920    1.3968    0.0000 C   0  0  0  0  0  4           0  0  0
    2.7429    3.3641   -1.2151 C   0  0  0  0  0  4           0  0  0
    2.7174    3.3739    1.2147 C   0  0  0  0  0  4           0  0  0
    2.2492    2.0594   -1.2106 C   0  0  0  0  0  4           0  0  0
    2.2241    2.0691    1.2104 C   0  0  0  0  0  4           0  0  0
    3.4872    5.3728   -0.0005 C   0  0  0  0  0  4           0  0  0
   -0.3376   -0.0246   -2.5112 C   0  0  0  0  0  4           0  0  0
    1.4499   -0.0000   -0.0000 C   0  0  0  0  0  4           0  0  0
   -0.3158    0.0019    2.5213 C   0  0  0  0  0  4           0  0  0
   -1.0617   -0.9959    3.4023 C   0  0  0  0  0  4           0  0  0
   -0.9098   -2.4203    2.8772 C   0  0  0  0  0  4           0  0  0
   -1.6516   -3.4182    3.7522 C   0  0  0  0  0  4           0  0  0
  1  7  1  0     0  0
  2 16  2  0     0  0
  3 16  1  0     0  0
  4 17  1  0     0  0
  5  8  1  0     0  0
  5  9  1  0     0  0
  5 18  1  0     0  0
  6  7  1  0     0  0
  6  8  2  0     0  0
  7  9  2  0     0  0
  8 19  1  0     0  0
  9 17  1  0     0  0
 10 12  2  0     0  0
 10 13  1  0     0  0
 10 16  1  0     0  0
 11 14  2  0     0  0
 11 15  1  0     0  0
 11 18  1  0     0  0
 12 14  1  0     0  0
 13 15  2  0     0  0
 19 20  1  0     0  0
 20 21  1  0     0  0
 21 22  1  0     0  0
M  END
> <standard_type>
pIC50

> <# Confs.>
25

> <canonical_smiles>
CCCCC1=NC(Cl)=C(CO)N1CC2=CC=C(C(O)=O)C=C2

> <standard_relation>
=

> <Publication_ID>
nan

> <predicted_activity_value>
5.0

> <actual_activity_value>
4.0

> <Compound>
24

> <standard_units>
nM

> hash
15330608199569978610

$$$$
23
XXILIB    08252103513D 0   0.00000     0.00000

 22 23  0     1  0            999 V2000
   -3.5606    0.0112   -1.4761 Cl  0  0  0  0  0  1           0  0  0
    4.5849    5.6880   -0.5509 O   0  0  0  0  0  2           0  0  0
    2.6493    6.1585    0.5910 O   0  0  0  0  0  2           0  0  0
   -0.2009   -1.3853   -2.8936 O   0  0  0  0  0  2           0  0  0
    0.0000    0.0000    0.0000 N   0  0  0  0  0  3           0  0  0
   -2.0832    0.0069    0.7729 N   0  0  0  0  0  3           0  0  0
   -2.0995    0.0012   -0.5972 C   0  0  0  0  0  4           0  0  0
   -0.8115    0.0000    1.1181 C   0  0  0  0  0  4           0  0  0
   -0.8170   -0.0114   -1.1136 C   0  0  0  0  0  4           0  0  0
    3.0012    3.9964   -0.0241 C   0  0  0  0  0  4           0  0  0
    1.9920    1.3968    0.0000 C   0  0  0  0  0  4           0  0  0
    3.8867    2.9203   -0.0118 C   0  0  0  0  0  4           0  0  0
    1.6214    3.7992   -0.0391 C   0  0  0  0  0  4           0  0  0
    3.3778    1.6214   -0.0000 C   0  0  0  0  0  4           0  0  0
    1.1207    2.4973   -0.0269 C   0  0  0  0  0  4           0  0  0
    3.5293    5.3565   -0.0447 C   0  0  0  0  0  4           0  0  0
   -0.3376   -0.0246   -2.5112 C   0  0  0  0  0  4           0  0  0
    1.4499   -0.0000    0.0000 C   0  0  0  0  0  4           0  0  0
   -0.3158    0.0019    2.5213 C   0  0  0  0  0  4           0  0  0
   -0.1206   -1.4082    3.0704 C   0  0  0  0  0  4           0  0  0
   -1.4290   -2.1928    3.0603 C   0  0  0  0  0  4           0  0  0
   -1.2393   -3.5989    3.6068 C   0  0  0  0  0  4           0  0  0
  1  7  1  0     0  0
  2 16  2  0     0  0
  3 16  1  0     0  0
  4 17  1  0     0  0
  5  8  1  0     0  0
  5  9  1  0     0  0
  5 18  1  0     0  0
  6  7  1  0     0  0
  6  8  2  0     0  0
  7  9  2  0     0  0
  8 19  1  0     0  0
  9 17  1  0     0  0
 10 12  2  0     0  0
 10 13  1  0     0  0
 10 16  1  0     0  0
 11 14  2  0     0  0
 11 15  1  0     0  0
 11 18  1  0     0  0
 12 14  1  0     0  0
 13 15  2  0     0  0
 19 20  1  0     0  0
 20 21  1  0     0  0
 21 22  1  0     0  0
M  END
> <standard_type>
pIC50

> <# Confs.>
25

> <canonical_smiles>
CCCCC1=NC(Cl)=C(CO)N1CC2=CC=C(C(O)=O)C=C2

> <standard_relation>
=

> <Publication_ID>
nan

> <predicted_activity_value>
5.0

> <actual_activity_value>
4.0

> <Compound>
24

> <standard_units>
nM

> hash
15330608199569978610

$$$$
23
XXILIB    08252103513D 0   0.00000     0.00000

 22 23  0     1  0            999 V2000
   -3.5606    0.0112   -1.4761 Cl  0  0  0  0  0  1           0  0  0
    2.9792   -6.3266   -0.4417 O   0  0  0  0  0  2           0  0  0
    4.7134   -5.3375    0.6924 O   0  0  0  0  0  2           0  0  0
   -0.2030    1.3286   -2.9199 O   0  0  0  0  0  2           0  0  0
    0.0000   -0.0000    0.0000 N   0  0  0  0  0  3           0  0  0
   -2.0832    0.0069    0.7729 N   0  0  0  0  0  3           0  0  0
   -2.0995    0.0012   -0.5972 C   0  0  0  0  0  4           0  0  0
   -0.8115   -0.0000    1.1181 C   0  0  0  0  0  4           0  0  0
   -0.8170   -0.0114   -1.1136 C   0  0  0  0  0  4           0  0  0
    3.0012   -3.9964    0.0241 C   0  0  0  0  0  4           0  0  0
    1.9920   -1.3968    0.0000 C   0  0  0  0  0  4           0  0  0
    3.8867   -2.9203    0.0118 C   0  0  0  0  0  4           0  0  0
    1.6214   -3.7992    0.0391 C   0  0  0  0  0  4           0  0  0
    3.3778   -1.6214    0.0000 C   0  0  0  0  0  4           0  0  0
    1.1207   -2.4973    0.0269 C   0  0  0  0  0  4           0  0  0
    3.5293   -5.3565    0.0447 C   0  0  0  0  0  4           0  0  0
   -0.3376   -0.0246   -2.5112 C   0  0  0  0  0  4           0  0  0
    1.4499    0.0000   -0.0000 C   0  0  0  0  0  4           0  0  0
   -0.3158    0.0019    2.5213 C   0  0  0  0  0  4           0  0  0
   -1.4525    0.0014    3.5390 C   0  0  0  0  0  4           0  0  0
   -0.9171    0.0033    4.9677 C   0  0  0  0  0  4           0  0  0
   -2.0466    0.0028    5.9855 C   0  0  0  0  0  4           0  0  0
  1  7  1  0     0  0
  2 16  2  0     0  0
  3 16  1  0     0  0
  4 17  1  0     0  0
  5  8  1  0     0  0
  5  9  1  0     0  0
  5 18  1  0     0  0
  6  7  1  0     0  0
  6  8  2  0     0  0
  7  9  2  0     0  0
  8 19  1  0     0  0
  9 17  1  0     0  0
 10 12  2  0     0  0
 10 13  1  0     0  0
 10 16  1  0     0  0
 11 14  2  0     0  0
 11 15  1  0     0  0
 11 18  1  0     0  0
 12 14  1  0     0  0
 13 15  2  0     0  0
 19 20  1  0     0  0
 20 21  1  0     0  0
 21 22  1  0     0  0
M  END
> <standard_type>
pIC50

> <# Confs.>
25

> <canonical_smiles>
CCCCC1=NC(Cl)=C(CO)N1CC2=CC=C(C(O)=O)C=C2

> <standard_relation>
=

> <Publication_ID>
nan

> <predicted_activity_value>
5.0

> <actual_activity_value>
4.0

> <Compound>
24

> <standard_units>
nM

> hash
15330608199569978610

$$$$
23
XXILIB    08252103513D 0   0.00000     0.00000

 22 23  0     1  0            999 V2000
   -3.5606    0.0112   -1.4761 Cl  0  0  0  0  0  1           0  0  0
    3.2620   -6.2018   -0.8613 O   0  0  0  0  0  2           0  0  0
    4.2343   -5.5429    1.1116 O   0  0  0  0  0  2           0  0  0
    0.7050    0.9349   -2.6048 O   0  0  0  0  0  2           0  0  0
   -0.0000    0.0000    0.0000 N   0  0  0  0  0  3           0  0  0
   -2.0832    0.0069    0.7729 N   0  0  0  0  0  3           0  0  0
   -2.0995    0.0012   -0.5972 C   0  0  0  0  0  4           0  0  0
   -0.8115   -0.0000    1.1181 C   0  0  0  0  0  4           0  0  0
   -0.8170   -0.0114   -1.1136 C   0  0  0  0  0  4           0  0  0
    2.9786   -4.0052    0.0002 C   0  0  0  0  0  4           0  0  0
    1.9920   -1.3968    0.0000 C   0  0  0  0  0  4           0  0  0
    2.7429   -3.3641    1.2151 C   0  0  0  0  0  4           0  0  0
    2.7174   -3.3739   -1.2147 C   0  0  0  0  0  4           0  0  0
    2.2492   -2.0594    1.2106 C   0  0  0  0  0  4           0  0  0
    2.2241   -2.0691   -1.2104 C   0  0  0  0  0  4           0  0  0
    3.4872   -5.3728    0.0005 C   0  0  0  0  0  4           0  0  0
   -0.3376   -0.0246   -2.5112 C   0  0  0  0  0  4           0  0  0
    1.4499    0.0000    0.0000 C   0  0  0  0  0  4           0  0  0
   -0.3158    0.0019    2.5213 C   0  0  0  0  0  4           0  0  0
   -1.0641    0.9993    3.4005 C   0  0  0  0  0  4           0  0  0
   -0.9157    2.4232    2.8729 C   0  0  0  0  0  4           0  0  0
   -1.6600    3.4208    3.7461 C   0  0  0  0  0  4           0  0  0
  1  7  1  0     0  0
  2 16  2  0     0  0
  3 16  1  0     0  0
  4 17  1  0     0  0
  5  8  1  0     0  0
  5  9  1  0     0  0
  5 18  1  0     0  0
  6  7  1  0     0  0
  6  8  2  0     0  0
  7  9  2  0     0  0
  8 19  1  0     0  0
  9 17  1  0     0  0
 10 12  2  0     0  0
 10 13  1  0     0  0
 10 16  1  0     0  0
 11 14  2  0     0  0
 11 15  1  0     0  0
 11 18  1  0     0  0
 12 14  1  0     0  0
 13 15  2  0     0  0
 19 20  1  0     0  0
 20 21  1  0     0  0
 21 22  1  0     0  0
M  END
> <standard_type>
pIC50

> <# Confs.>
25

> <canonical_smiles>
CCCCC1=NC(Cl)=C(CO)N1CC2=CC=C(C(O)=O)C=C2

> <standard_relation>
=

> <Publication_ID>
nan

> <predicted_activity_value>
5.0

> <actual_activity_value>
4.0

> <Compound>
24

> <standard_units>
nM

> hash
15330608199569978610

$$$$
23
XXILIB    08252103513D 0   0.00000     0.00000

 22 23  0     1  0            999 V2000
   -3.5606    0.0112   -1.4761 Cl  0  0  0  0  0  1           0  0  0
    4.5880   -5.7020   -0.4454 O   0  0  0  0  0  2           0  0  0
    2.6423   -6.1417    0.6916 O   0  0  0  0  0  2           0  0  0
   -0.2030    1.3286   -2.9199 O   0  0  0  0  0  2           0  0  0
    0.0000   -0.0000    0.0000 N   0  0  0  0  0  3           0  0  0
   -2.0832    0.0069    0.7729 N   0  0  0  0  0  3           0  0  0
   -2.0995    0.0012   -0.5972 C   0  0  0  0  0  4           0  0  0
   -0.8115    0.0000    1.1181 C   0  0  0  0  0  4           0  0  0
   -0.8170   -0.0114   -1.1136 C   0  0  0  0  0  4           0  0  0
    3.0012   -3.9964    0.0241 C   0  0  0  0  0  4           0  0  0
    1.9920   -1.3968    0.0000 C   0  0  0  0  0  4           0  0  0
    3.8867   -2.9203    0.0118 C   0  0  0  0  0  4           0  0  0
    1.6214   -3.7992    0.0391 C   0  0  0  0  0  4           0  0  0
    3.3778   -1.6214    0.0000 C   0  0  0  0  0  4           0  0  0
    1.1207   -2.4973    0.0269 C   0  0  0  0  0  4           0  0  0
    3.5293   -5.3565    0.0447 C   0  0  0  0  0  4           0  0  0
   -0.3376   -0.0246   -2.5112 C   0  0  0  0  0  4           0  0  0
    1.4499    0.0000   -0.0000 C   0  0  0  0  0  4           0  0  0
   -0.3158    0.0019    2.5213 C   0  0  0  0  0  4           0  0  0
   -1.0617   -0.9959    3.4023 C   0  0  0  0  0  4           0  0  0
   -0.5343   -0.9734    4.8337 C   0  0  0  0  0  4           0  0  0
   -1.2748   -1.9663    5.7155 C   0  0  0  0  0  4           0  0  0
  1  7  1  0     0  0
  2 16  2  0     0  0
  3 16  1  0     0  0
  4 17  1  0     0  0
  5  8  1  0     0  0
  5  9  1  0     0  0
  5 18  1  0     0  0
  6  7  1  0     0  0
  6  8  2  0     0  0
  7  9  2  0     0  0
  8 19  1  0     0  0
  9 17  1  0     0  0
 10 12  2  0     0  0
 10 13  1  0     0  0
 10 16  1  0     0  0
 11 14  2  0     0  0
 11 15  1  0     0  0
 11 18  1  0     0  0
 12 14  1  0     0  0
 13 15  2  0     0  0
 19 20  1  0     0  0
 20 21  1  0     0  0
 21 22  1  0     0  0
M  END
> <standard_type>
pIC50

> <# Confs.>
25

> <canonical_smiles>
CCCCC1=NC(Cl)=C(CO)N1CC2=CC=C(C(O)=O)C=C2

> <standard_relation>
=

> <Publication_ID>
nan

> <predicted_activity_value>
5.0

> <actual_activity_value>
4.0

> <Compound>
24

> <standard_units>
nM

> hash
15330608199569978610

$$$$
23
XXILIB    08252103513D 0   0.00000     0.00000

 22 23  0     1  0            999 V2000
   -3.5606    0.0112   -1.4761 Cl  0  0  0  0  0  1           0  0  0
    4.5849   -5.6880    0.5509 O   0  0  0  0  0  2           0  0  0
    2.6493   -6.1585   -0.5910 O   0  0  0  0  0  2           0  0  0
   -0.2030    1.3286   -2.9199 O   0  0  0  0  0  2           0  0  0
   -0.0000    0.0000    0.0000 N   0  0  0  0  0  3           0  0  0
   -2.0832    0.0069    0.7729 N   0  0  0  0  0  3           0  0  0
   -2.0995    0.0012   -0.5972 C   0  0  0  0  0  4           0  0  0
   -0.8115    0.0000    1.1181 C   0  0  0  0  0  4           0  0  0
   -0.8170   -0.0114   -1.1136 C   0  0  0  0  0  4           0  0  0
    3.0012   -3.9964    0.0241 C   0  0  0  0  0  4           0  0  0
    1.9920   -1.3968    0.0000 C   0  0  0  0  0  4           0  0  0
    3.8867   -2.9203    0.0118 C   0  0  0  0  0  4           0  0  0
    1.6214   -3.7992    0.0391 C   0  0  0  0  0  4           0  0  0
    3.3778   -1.6214    0.0000 C   0  0  0  0  0  4           0  0  0
    1.1207   -2.4973    0.0269 C   0  0  0  0  0  4           0  0  0
    3.5293   -5.3565    0.0447 C   0  0  0  0  0  4           0  0  0
   -0.3376   -0.0246   -2.5112 C   0  0  0  0  0  4           0  0  0
    1.4499    0.0000   -0.0000 C   0  0  0  0  0  4           0  0  0
   -0.3158    0.0019    2.5213 C   0  0  0  0  0  4           0  0  0
   -0.1240    1.4134    3.0679 C   0  0  0  0  0  4           0  0  0
   -1.4344    2.1947    3.0564 C   0  0  0  0  0  4           0  0  0
   -1.2481    3.6023    3.6003 C   0  0  0  0  0  4           0  0  0
  1  7  1  0     0  0
  2 16  2  0     0  0
  3 16  1  0     0  0
  4 17  1  0     0  0
  5  8  1  0     0  0
  5  9  1  0     0  0
  5 18  1  0     0  0
  6  7  1  0     0  0
  6  8  2  0     0  0
  7  9  2  0     0  0
  8 19  1  0     0  0
  9 17  1  0     0  0
 10 12  2  0     0  0
 10 13  1  0     0  0
 10 16  1  0     0  0
 11 14  2  0     0  0
 11 15  1  0     0  0
 11 18  1  0     0  0
 12 14  1  0     0  0
 13 15  2  0     0  0
 19 20  1  0     0  0
 20 21  1  0     0  0
 21 22  1  0     0  0
M  END
> <standard_type>
pIC50

> <# Confs.>
25

> <canonical_smiles>
CCCCC1=NC(Cl)=C(CO)N1CC2=CC=C(C(O)=O)C=C2

> <standard_relation>
=

> <Publication_ID>
nan

> <predicted_activity_value>
5.0

> <actual_activity_value>
4.0

> <Compound>
24

> <standard_units>
nM

> hash
15330608199569978610

$$$$
23
XXILIB    08252103513D 0   0.00000     0.00000

 22 23  0     1  0            999 V2000
   -3.5606    0.0112   -1.4761 Cl  0  0  0  0  0  1           0  0  0
    4.1992   -5.8529    0.8624 O   0  0  0  0  0  2           0  0  0
    3.0329   -5.9901   -1.1106 O   0  0  0  0  0  2           0  0  0
    0.7050    0.9349   -2.6048 O   0  0  0  0  0  2           0  0  0
   -0.0000    0.0000    0.0000 N   0  0  0  0  0  3           0  0  0
   -2.0832    0.0069    0.7729 N   0  0  0  0  0  3           0  0  0
   -2.0995    0.0012   -0.5972 C   0  0  0  0  0  4           0  0  0
   -0.8115   -0.0000    1.1181 C   0  0  0  0  0  4           0  0  0
   -0.8170   -0.0114   -1.1136 C   0  0  0  0  0  4           0  0  0
    2.9786   -4.0052    0.0002 C   0  0  0  0  0  4           0  0  0
    1.9920   -1.3968    0.0000 C   0  0  0  0  0  4           0  0  0
    2.7429   -3.3641    1.2151 C   0  0  0  0  0  4           0  0  0
    2.7174   -3.3739   -1.2147 C   0  0  0  0  0  4           0  0  0
    2.2492   -2.0594    1.2106 C   0  0  0  0  0  4           0  0  0
    2.2241   -2.0691   -1.2104 C   0  0  0  0  0  4           0  0  0
    3.4872   -5.3728    0.0005 C   0  0  0  0  0  4           0  0  0
   -0.3376   -0.0246   -2.5112 C   0  0  0  0  0  4           0  0  0
    1.4499    0.0000    0.0000 C   0  0  0  0  0  4           0  0  0
   -0.3158    0.0019    2.5213 C   0  0  0  0  0  4           0  0  0
   -1.0641    0.9993    3.4005 C   0  0  0  0  0  4           0  0  0
   -0.9157    2.4232    2.8729 C   0  0  0  0  0  4           0  0  0
   -1.6600    3.4208    3.7461 C   0  0  0  0  0  4           0  0  0
  1  7  1  0     0  0
  2 16  2  0     0  0
  3 16  1  0     0  0
  4 17  1  0     0  0
  5  8  1  0     0  0
  5  9  1  0     0  0
  5 18  1  0     0  0
  6  7  1  0     0  0
  6  8  2  0     0  0
  7  9  2  0     0  0
  8 19  1  0     0  0
  9 17  1  0     0  0
 10 12  2  0     0  0
 10 13  1  0     0  0
 10 16  1  0     0  0
 11 14  2  0     0  0
 11 15  1  0     0  0
 11 18  1  0     0  0
 12 14  1  0     0  0
 13 15  2  0     0  0
 19 20  1  0     0  0
 20 21  1  0     0  0
 21 22  1  0     0  0
M  END
> <standard_type>
pIC50

> <# Confs.>
25

> <canonical_smiles>
CCCCC1=NC(Cl)=C(CO)N1CC2=CC=C(C(O)=O)C=C2

> <standard_relation>
=

> <Publication_ID>
nan

> <predicted_activity_value>
5.0

> <actual_activity_value>
4.0

> <Compound>
24

> <standard_units>
nM

> hash
15330608199569978610

$$$$
23
XXILIB    08252103513D 0   0.00000     0.00000

 22 23  0     1  0            999 V2000
   -3.5606    0.0112   -1.4761 Cl  0  0  0  0  0  1           0  0  0
    4.5880    5.7020    0.4454 O   0  0  0  0  0  2           0  0  0
    2.6423    6.1417   -0.6916 O   0  0  0  0  0  2           0  0  0
   -0.2009   -1.3853   -2.8936 O   0  0  0  0  0  2           0  0  0
   -0.0000    0.0000    0.0000 N   0  0  0  0  0  3           0  0  0
   -2.0832    0.0069    0.7729 N   0  0  0  0  0  3           0  0  0
   -2.0995    0.0012   -0.5972 C   0  0  0  0  0  4           0  0  0
   -0.8115   -0.0000    1.1181 C   0  0  0  0  0  4           0  0  0
   -0.8170   -0.0114   -1.1136 C   0  0  0  0  0  4           0  0  0
    3.0012    3.9964   -0.0241 C   0  0  0  0  0  4           0  0  0
    1.9920    1.3968    0.0000 C   0  0  0  0  0  4           0  0  0
    3.8867    2.9203   -0.0118 C   0  0  0  0  0  4           0  0  0
    1.6214    3.7992   -0.0391 C   0  0  0  0  0  4           0  0  0
    3.3778    1.6214   -0.0000 C   0  0  0  0  0  4           0  0  0
    1.1207    2.4973   -0.0269 C   0  0  0  0  0  4           0  0  0
    3.5293    5.3565   -0.0447 C   0  0  0  0  0  4           0  0  0
   -0.3376   -0.0246   -2.5112 C   0  0  0  0  0  4           0  0  0
    1.4499   -0.0000    0.0000 C   0  0  0  0  0  4           0  0  0
   -0.3158    0.0019    2.5213 C   0  0  0  0  0  4           0  0  0
   -1.0641    0.9993    3.4005 C   0  0  0  0  0  4           0  0  0
   -0.5367    0.9807    4.8320 C   0  0  0  0  0  4           0  0  0
   -1.2796    1.9734    5.7120 C   0  0  0  0  0  4           0  0  0
  1  7  1  0     0  0
  2 16  2  0     0  0
  3 16  1  0     0  0
  4 17  1  0     0  0
  5  8  1  0     0  0
  5  9  1  0     0  0
  5 18  1  0     0  0
  6  7  1  0     0  0
  6  8  2  0     0  0
  7  9  2  0     0  0
  8 19  1  0     0  0
  9 17  1  0     0  0
 10 12  2  0     0  0
 10 13  1  0     0  0
 10 16  1  0     0  0
 11 14  2  0     0  0
 11 15  1  0     0  0
 11 18  1  0     0  0
 12 14  1  0     0  0
 13 15  2  0     0  0
 19 20  1  0     0  0
 20 21  1  0     0  0
 21 22  1  0     0  0
M  END
> <standard_type>
pIC50

> <# Confs.>
25

> <canonical_smiles>
CCCCC1=NC(Cl)=C(CO)N1CC2=CC=C(C(O)=O)C=C2

> <standard_relation>
=

> <Publication_ID>
nan

> <predicted_activity_value>
5.0

> <actual_activity_value>
4.0

> <Compound>
24

> <standard_units>
nM

> hash
15330608199569978610

$$$$
23
XXILIB    08252103513D 0   0.00000     0.00000

 22 23  0     1  0            999 V2000
   -3.5606    0.0112   -1.4761 Cl  0  0  0  0  0  1           0  0  0
    2.9761    6.3127   -0.5546 O   0  0  0  0  0  2           0  0  0
    4.7204    5.3543    0.5902 O   0  0  0  0  0  2           0  0  0
   -0.2009   -1.3853   -2.8936 O   0  0  0  0  0  2           0  0  0
    0.0000    0.0000    0.0000 N   0  0  0  0  0  3           0  0  0
   -2.0832    0.0069    0.7729 N   0  0  0  0  0  3           0  0  0
   -2.0995    0.0012   -0.5972 C   0  0  0  0  0  4           0  0  0
   -0.8115    0.0000    1.1181 C   0  0  0  0  0  4           0  0  0
   -0.8170   -0.0114   -1.1136 C   0  0  0  0  0  4           0  0  0
    3.0012    3.9964   -0.0241 C   0  0  0  0  0  4           0  0  0
    1.9920    1.3968    0.0000 C   0  0  0  0  0  4           0  0  0
    3.8867    2.9203   -0.0118 C   0  0  0  0  0  4           0  0  0
    1.6214    3.7992   -0.0391 C   0  0  0  0  0  4           0  0  0
    3.3778    1.6214   -0.0000 C   0  0  0  0  0  4           0  0  0
    1.1207    2.4973   -0.0269 C   0  0  0  0  0  4           0  0  0
    3.5293    5.3565   -0.0447 C   0  0  0  0  0  4           0  0  0
   -0.3376   -0.0246   -2.5112 C   0  0  0  0  0  4           0  0  0
    1.4499   -0.0000    0.0000 C   0  0  0  0  0  4           0  0  0
   -0.3158    0.0019    2.5213 C   0  0  0  0  0  4           0  0  0
   -0.1206   -1.4082    3.0704 C   0  0  0  0  0  4           0  0  0
   -1.4290   -2.1928    3.0603 C   0  0  0  0  0  4           0  0  0
   -1.2393   -3.5989    3.6068 C   0  0  0  0  0  4           0  0  0
  1  7  1  0     0  0
  2 16  2  0     0  0
  3 16  1  0     0  0
  4 17  1  0     0  0
  5  8  1  0     0  0
  5  9  1  0     0  0
  5 18  1  0     0  0
  6  7  1  0     0  0
  6  8  2  0     0  0
  7  9  2  0     0  0
  8 19  1  0     0  0
  9 17  1  0     0  0
 10 12  2  0     0  0
 10 13  1  0     0  0
 10 16  1  0     0  0
 11 14  2  0     0  0
 11 15  1  0     0  0
 11 18  1  0     0  0
 12 14  1  0     0  0
 13 15  2  0     0  0
 19 20  1  0     0  0
 20 21  1  0     0  0
 21 22  1  0     0  0
M  END
> <standard_type>
pIC50

> <# Confs.>
25

> <canonical_smiles>
CCCCC1=NC(Cl)=C(CO)N1CC2=CC=C(C(O)=O)C=C2

> <standard_relation>
=

> <Publication_ID>
nan

> <predicted_activity_value>
5.0

> <actual_activity_value>
4.0

> <Compound>
24

> <standard_units>
nM

> hash
15330608199569978610

$$$$
23
XXILIB    08252103513D 0   0.00000     0.00000

 22 23  0     1  0            999 V2000
   -3.5606    0.0112   -1.4761 Cl  0  0  0  0  0  1           0  0  0
    2.9761   -6.3127    0.5546 O   0  0  0  0  0  2           0  0  0
    4.7204   -5.3543   -0.5902 O   0  0  0  0  0  2           0  0  0
   -0.2030    1.3286   -2.9199 O   0  0  0  0  0  2           0  0  0
    0.0000   -0.0000    0.0000 N   0  0  0  0  0  3           0  0  0
   -2.0832    0.0069    0.7729 N   0  0  0  0  0  3           0  0  0
   -2.0995    0.0012   -0.5972 C   0  0  0  0  0  4           0  0  0
   -0.8115    0.0000    1.1181 C   0  0  0  0  0  4           0  0  0
   -0.8170   -0.0114   -1.1136 C   0  0  0  0  0  4           0  0  0
    3.0012   -3.9964    0.0241 C   0  0  0  0  0  4           0  0  0
    1.9920   -1.3968    0.0000 C   0  0  0  0  0  4           0  0  0
    3.8867   -2.9203    0.0118 C   0  0  0  0  0  4           0  0  0
    1.6214   -3.7992    0.0391 C   0  0  0  0  0  4           0  0  0
    3.3778   -1.6214    0.0000 C   0  0  0  0  0  4           0  0  0
    1.1207   -2.4973    0.0269 C   0  0  0  0  0  4           0  0  0
    3.5293   -5.3565    0.0447 C   0  0  0  0  0  4           0  0  0
   -0.3376   -0.0246   -2.5112 C   0  0  0  0  0  4           0  0  0
    1.4499    0.0000   -0.0000 C   0  0  0  0  0  4           0  0  0
   -0.3158    0.0019    2.5213 C   0  0  0  0  0  4           0  0  0
   -1.0617   -0.9959    3.4023 C   0  0  0  0  0  4           0  0  0
   -0.5343   -0.9734    4.8337 C   0  0  0  0  0  4           0  0  0
   -1.2748   -1.9663    5.7155 C   0  0  0  0  0  4           0  0  0
  1  7  1  0     0  0
  2 16  2  0     0  0
  3 16  1  0     0  0
  4 17  1  0     0  0
  5  8  1  0     0  0
  5  9  1  0     0  0
  5 18  1  0     0  0
  6  7  1  0     0  0
  6  8  2  0     0  0
  7  9  2  0     0  0
  8 19  1  0     0  0
  9 17  1  0     0  0
 10 12  2  0     0  0
 10 13  1  0     0  0
 10 16  1  0     0  0
 11 14  2  0     0  0
 11 15  1  0     0  0
 11 18  1  0     0  0
 12 14  1  0     0  0
 13 15  2  0     0  0
 19 20  1  0     0  0
 20 21  1  0     0  0
 21 22  1  0     0  0
M  END
> <standard_type>
pIC50

> <# Confs.>
25

> <canonical_smiles>
CCCCC1=NC(Cl)=C(CO)N1CC2=CC=C(C(O)=O)C=C2

> <standard_relation>
=

> <Publication_ID>
nan

> <predicted_activity_value>
5.0

> <actual_activity_value>
4.0

> <Compound>
24

> <standard_units>
nM

> hash
15330608199569978610

$$$$
23
XXILIB    08252103513D 0   0.00000     0.00000

 22 23  0     1  0            999 V2000
   -3.5606    0.0112   -1.4761 Cl  0  0  0  0  0  1           0  0  0
    4.5849    5.6880   -0.5509 O   0  0  0  0  0  2           0  0  0
    2.6493    6.1585    0.5910 O   0  0  0  0  0  2           0  0  0
    0.7050    0.9349   -2.6048 O   0  0  0  0  0  2           0  0  0
    0.0000    0.0000    0.0000 N   0  0  0  0  0  3           0  0  0
   -2.0832    0.0069    0.7729 N   0  0  0  0  0  3           0  0  0
   -2.0995    0.0012   -0.5972 C   0  0  0  0  0  4           0  0  0
   -0.8115    0.0000    1.1181 C   0  0  0  0  0  4           0  0  0
   -0.8170   -0.0114   -1.1136 C   0  0  0  0  0  4           0  0  0
    3.0012    3.9964   -0.0241 C   0  0  0  0  0  4           0  0  0
    1.9920    1.3968    0.0000 C   0  0  0  0  0  4           0  0  0
    3.8867    2.9203   -0.0118 C   0  0  0  0  0  4           0  0  0
    1.6214    3.7992   -0.0391 C   0  0  0  0  0  4           0  0  0
    3.3778    1.6214   -0.0000 C   0  0  0  0  0  4           0  0  0
    1.1207    2.4973   -0.0269 C   0  0  0  0  0  4           0  0  0
    3.5293    5.3565   -0.0447 C   0  0  0  0  0  4           0  0  0
   -0.3376   -0.0246   -2.5112 C   0  0  0  0  0  4           0  0  0
    1.4499   -0.0000    0.0000 C   0  0  0  0  0  4           0  0  0
   -0.3158    0.0019    2.5213 C   0  0  0  0  0  4           0  0  0
   -0.1206   -1.4082    3.0704 C   0  0  0  0  0  4           0  0  0
    0.3875   -1.3773    4.5087 C   0  0  0  0  0  4           0  0  0
    0.5836   -2.7806    5.0601 C   0  0  0  0  0  4           0  0  0
  1  7  1  0     0  0
  2 16  2  0     0  0
  3 16  1  0     0  0
  4 17  1  0     0  0
  5  8  1  0     0  0
  5  9  1  0     0  0
  5 18  1  0     0  0
  6  7  1  0     0  0
  6  8  2  0     0  0
  7  9  2  0     0  0
  8 19  1  0     0  0
  9 17  1  0     0  0
 10 12  2  0     0  0
 10 13  1  0     0  0
 10 16  1  0     0  0
 11 14  2  0     0  0
 11 15  1  0     0  0
 11 18  1  0     0  0
 12 14  1  0     0  0
 13 15  2  0     0  0
 19 20  1  0     0  0
 20 21  1  0     0  0
 21 22  1  0     0  0
M  END
> <standard_type>
pIC50

> <# Confs.>
25

> <canonical_smiles>
CCCCC1=NC(Cl)=C(CO)N1CC2=CC=C(C(O)=O)C=C2

> <standard_relation>
=

> <Publication_ID>
nan

> <predicted_activity_value>
5.0

> <actual_activity_value>
4.0

> <Compound>
24

> <standard_units>
nM

> hash
15330608199569978610

$$$$
23
XXILIB    08252103513D 0   0.00000     0.00000

 22 23  0     1  0            999 V2000
   -3.5606    0.0112   -1.4761 Cl  0  0  0  0  0  1           0  0  0
    2.9792   -6.3266   -0.4417 O   0  0  0  0  0  2           0  0  0
    4.7134   -5.3375    0.6924 O   0  0  0  0  0  2           0  0  0
   -0.2030    1.3286   -2.9199 O   0  0  0  0  0  2           0  0  0
   -0.0000    0.0000    0.0000 N   0  0  0  0  0  3           0  0  0
   -2.0832    0.0069    0.7729 N   0  0  0  0  0  3           0  0  0
   -2.0995    0.0012   -0.5972 C   0  0  0  0  0  4           0  0  0
   -0.8115    0.0000    1.1181 C   0  0  0  0  0  4           0  0  0
   -0.8170   -0.0114   -1.1136 C   0  0  0  0  0  4           0  0  0
    3.0012   -3.9964    0.0241 C   0  0  0  0  0  4           0  0  0
    1.9920   -1.3968    0.0000 C   0  0  0  0  0  4           0  0  0
    3.8867   -2.9203    0.0118 C   0  0  0  0  0  4           0  0  0
    1.6214   -3.7992    0.0391 C   0  0  0  0  0  4           0  0  0
    3.3778   -1.6214    0.0000 C   0  0  0  0  0  4           0  0  0
    1.1207   -2.4973    0.0269 C   0  0  0  0  0  4           0  0  0
    3.5293   -5.3565    0.0447 C   0  0  0  0  0  4           0  0  0
   -0.3376   -0.0246   -2.5112 C   0  0  0  0  0  4           0  0  0
    1.4499    0.0000   -0.0000 C   0  0  0  0  0  4           0  0  0
   -0.3158    0.0019    2.5213 C   0  0  0  0  0  4           0  0  0
   -0.1240    1.4134    3.0679 C   0  0  0  0  0  4           0  0  0
   -1.4344    2.1947    3.0564 C   0  0  0  0  0  4           0  0  0
   -1.2481    3.6023    3.6003 C   0  0  0  0  0  4           0  0  0
  1  7  1  0     0  0
  2 16  2  0     0  0
  3 16  1  0     0  0
  4 17  1  0     0  0
  5  8  1  0     0  0
  5  9  1  0     0  0
  5 18  1  0     0  0
  6  7  1  0     0  0
  6  8  2  0     0  0
  7  9  2  0     0  0
  8 19  1  0     0  0
  9 17  1  0     0  0
 10 12  2  0     0  0
 10 13  1  0     0  0
 10 16  1  0     0  0
 11 14  2  0     0  0
 11 15  1  0     0  0
 11 18  1  0     0  0
 12 14  1  0     0  0
 13 15  2  0     0  0
 19 20  1  0     0  0
 20 21  1  0     0  0
 21 22  1  0     0  0
M  END
> <standard_type>
pIC50

> <# Confs.>
25

> <canonical_smiles>
CCCCC1=NC(Cl)=C(CO)N1CC2=CC=C(C(O)=O)C=C2

> <standard_relation>
=

> <Publication_ID>
nan

> <predicted_activity_value>
5.0

> <actual_activity_value>
4.0

> <Compound>
24

> <standard_units>
nM

> hash
15330608199569978610

$$$$
23
XXILIB    08252103513D 0   0.00000     0.00000

 22 23  0     1  0            999 V2000
   -3.5606    0.0112   -1.4761 Cl  0  0  0  0  0  1           0  0  0
    2.9792    6.3266    0.4417 O   0  0  0  0  0  2           0  0  0
    4.7134    5.3375   -0.6924 O   0  0  0  0  0  2           0  0  0
   -0.2009   -1.3853   -2.8936 O   0  0  0  0  0  2           0  0  0
   -0.0000    0.0000    0.0000 N   0  0  0  0  0  3           0  0  0
   -2.0832    0.0069    0.7729 N   0  0  0  0  0  3           0  0  0
   -2.0995    0.0012   -0.5972 C   0  0  0  0  0  4           0  0  0
   -0.8115   -0.0000    1.1181 C   0  0  0  0  0  4           0  0  0
   -0.8170   -0.0114   -1.1136 C   0  0  0  0  0  4           0  0  0
    3.0012    3.9964   -0.0241 C   0  0  0  0  0  4           0  0  0
    1.9920    1.3968    0.0000 C   0  0  0  0  0  4           0  0  0
    3.8867    2.9203   -0.0118 C   0  0  0  0  0  4           0  0  0
    1.6214    3.7992   -0.0391 C   0  0  0  0  0  4           0  0  0
    3.3778    1.6214   -0.0000 C   0  0  0  0  0  4           0  0  0
    1.1207    2.4973   -0.0269 C   0  0  0  0  0  4           0  0  0
    3.5293    5.3565   -0.0447 C   0  0  0  0  0  4           0  0  0
   -0.3376   -0.0246   -2.5112 C   0  0  0  0  0  4           0  0  0
    1.4499   -0.0000    0.0000 C   0  0  0  0  0  4           0  0  0
   -0.3158    0.0019    2.5213 C   0  0  0  0  0  4           0  0  0
   -1.0641    0.9993    3.4005 C   0  0  0  0  0  4           0  0  0
   -0.5367    0.9807    4.8320 C   0  0  0  0  0  4           0  0  0
   -1.2796    1.9734    5.7120 C   0  0  0  0  0  4           0  0  0
  1  7  1  0     0  0
  2 16  2  0     0  0
  3 16  1  0     0  0
  4 17  1  0     0  0
  5  8  1  0     0  0
  5  9  1  0     0  0
  5 18  1  0     0  0
  6  7  1  0     0  0
  6  8  2  0     0  0
  7  9  2  0     0  0
  8 19  1  0     0  0
  9 17  1  0     0  0
 10 12  2  0     0  0
 10 13  1  0     0  0
 10 16  1  0     0  0
 11 14  2  0     0  0
 11 15  1  0     0  0
 11 18  1  0     0  0
 12 14  1  0     0  0
 13 15  2  0     0  0
 19 20  1  0     0  0
 20 21  1  0     0  0
 21 22  1  0     0  0
M  END
> <standard_type>
pIC50

> <# Confs.>
25

> <canonical_smiles>
CCCCC1=NC(Cl)=C(CO)N1CC2=CC=C(C(O)=O)C=C2

> <standard_relation>
=

> <Publication_ID>
nan

> <predicted_activity_value>
5.0

> <actual_activity_value>
4.0

> <Compound>
24

> <standard_units>
nM

> hash
15330608199569978610

$$$$
21
XXILIB    08252103513D 0   0.00000     0.00000

 31 32  0     1  0            999 V2000
    5.0107   -1.4785    0.0029 Cl  0  0  0  0  0  1           0  0  0
    1.3129   -2.3205   -2.4027 O   0  0  0  0  0  2           0  0  0
   -4.7053    1.6953    5.9845 O   0  0  0  0  0  2           0  0  0
   -2.2675   -2.1750    5.9491 O   0  0  0  0  0  2           0  0  0
    1.8330   -4.3580   -1.4605 O   0  0  0  0  0  2           0  0  0
   -6.2994    1.5136    7.5950 O   0  0  0  0  0  2           0  0  0
    1.4518   -0.0000   -0.0000 N   0  0  0  0  0  3           0  0  0
    3.5355    0.7714   -0.0002 N   0  0  0  0  0  3           0  0  0
   -2.0310    0.0541    5.3477 N   0  0  0  0  0  3           0  0  0
    3.5508   -0.5984   -0.0049 C   0  0  0  0  0  4           0  0  0
    2.2641    1.1177    0.0000 C   0  0  0  0  0  4           0  0  0
    2.2681   -1.1139   -0.0135 C   0  0  0  0  0  4           0  0  0
   -1.5316    0.0009    4.0319 C   0  0  0  0  0  4           0  0  0
   -0.5420    0.0000    1.3966 C   0  0  0  0  0  4           0  0  0
   -1.2943   -1.2075    3.3691 C   0  0  0  0  0  4           0  0  0
   -1.2676    1.2075    3.3765 C   0  0  0  0  0  4           0  0  0
   -0.8001   -1.2055    2.0616 C   0  0  0  0  0  4           0  0  0
   -0.7748    1.2060    2.0696 C   0  0  0  0  0  4           0  0  0
    1.6091   -3.0111   -1.4368 C   0  0  0  0  0  4           0  0  0
   -5.3904    1.0038    6.7266 C   0  0  0  0  0  4           0  0  0
   -2.3670   -0.9753    6.1993 C   0  0  0  0  0  4           0  0  0
    1.7008   -4.9810   -2.7425 C   0  0  0  0  0  4           0  0  0
    0.0000    0.0000    0.0000 C   0  0  0  0  0  4           0  0  0
    1.7702    2.5201    0.0095 C   0  0  0  0  0  4           0  0  0
    1.7882   -2.5191   -0.0232 C   0  0  0  0  0  4           0  0  0
   -5.3156   -0.4952    6.7842 C   0  0  0  0  0  4           0  0  0
   -2.8701   -0.4868    7.5388 C   0  0  0  0  0  4           0  0  0
    2.5114    3.4050   -0.9886 C   0  0  0  0  0  4           0  0  0
   -4.2908   -0.9632    7.8082 C   0  0  0  0  0  4           0  0  0
    2.3981    2.9479   -2.4436 C   0  0  0  0  0  4           0  0  0
    3.1580    3.8724   -3.3804 C   0  0  0  0  0  4           0  0  0
  1 10  1  0     0  0
  2 19  2  0     0  0
  3 20  2  0     0  0
  4 21  2  0     0  0
  5 19  1  0     0  0
  5 22  1  0     0  0
  6 20  1  0     0  0
  7 11  1  0     0  0
  7 12  1  0     0  0
  7 23  1  0     0  0
  8 10  1  0     0  0
  8 11  2  0     0  0
  9 13  1  0     0  0
  9 21  1  0     0  0
 10 12  2  0     0  0
 11 24  1  0     0  0
 12 25  1  0     0  0
 13 15  2  0     0  0
 13 16  1  0     0  0
 14 17  2  0     0  0
 14 18  1  0     0  0
 14 23  1  0     0  0
 15 17  1  0     0  0
 16 18  2  0     0  0
 19 25  1  0     0  0
 20 26  1  0     0  0
 21 27  1  0     0  0
 24 28  1  0     0  0
 26 29  1  0     0  0
 27 29  1  0     0  0
 28 30  1  0     0  0
 30 31  1  0     0  0
M  END
> <standard_type>
pIC50

> <# Confs.>
25

> <canonical_smiles>
CCCCC1=NC(Cl)=C(CC(OC)=O)N1CC2=CC=C(NC(CCCC(O)=O)=O)C=C2

> <standard_relation>
=

> <Publication_ID>
nan

> <predicted_activity_value>
5.0

> <actual_activity_value>
4.494850021680094

> <Compound>
22

> <standard_units>
nM

> hash
1317428753005583636

$$$$
21
XXILIB    08252103513D 0   0.00000     0.00000

 31 32  0     1  0            999 V2000
    5.0107   -1.4785    0.0029 Cl  0  0  0  0  0  1           0  0  0
    1.3129   -2.3205   -2.4027 O   0  0  0  0  0  2           0  0  0
   -5.8922    0.5157    7.8530 O   0  0  0  0  0  2           0  0  0
   -2.2675   -2.1750    5.9491 O   0  0  0  0  0  2           0  0  0
    1.8330   -4.3580   -1.4605 O   0  0  0  0  0  2           0  0  0
   -6.5400   -0.4214    5.8858 O   0  0  0  0  0  2           0  0  0
    1.4518   -0.0000   -0.0000 N   0  0  0  0  0  3           0  0  0
    3.5355    0.7714   -0.0002 N   0  0  0  0  0  3           0  0  0
   -2.0310    0.0541    5.3477 N   0  0  0  0  0  3           0  0  0
    3.5508   -0.5984   -0.0049 C   0  0  0  0  0  4           0  0  0
    2.2641    1.1177    0.0000 C   0  0  0  0  0  4           0  0  0
    2.2681   -1.1139   -0.0135 C   0  0  0  0  0  4           0  0  0
   -1.5316    0.0009    4.0319 C   0  0  0  0  0  4           0  0  0
   -0.5420    0.0000    1.3966 C   0  0  0  0  0  4           0  0  0
   -1.2943   -1.2075    3.3691 C   0  0  0  0  0  4           0  0  0
   -1.2676    1.2075    3.3765 C   0  0  0  0  0  4           0  0  0
   -0.8001   -1.2055    2.0616 C   0  0  0  0  0  4           0  0  0
   -0.7748    1.2060    2.0696 C   0  0  0  0  0  4           0  0  0
    1.6091   -3.0111   -1.4368 C   0  0  0  0  0  4           0  0  0
   -5.8711   -0.4214    7.0659 C   0  0  0  0  0  4           0  0  0
   -2.3670   -0.9753    6.1993 C   0  0  0  0  0  4           0  0  0
    1.7008   -4.9810   -2.7425 C   0  0  0  0  0  4           0  0  0
    0.0000    0.0000    0.0000 C   0  0  0  0  0  4           0  0  0
    1.7702    2.5201    0.0095 C   0  0  0  0  0  4           0  0  0
    1.7882   -2.5191   -0.0232 C   0  0  0  0  0  4           0  0  0
   -5.1125   -1.6967    7.2987 C   0  0  0  0  0  4           0  0  0
   -2.8701   -0.4868    7.5388 C   0  0  0  0  0  4           0  0  0
    2.5114    3.4050   -0.9886 C   0  0  0  0  0  4           0  0  0
   -3.8708   -1.4597    8.1470 C   0  0  0  0  0  4           0  0  0
    2.3981    2.9479   -2.4436 C   0  0  0  0  0  4           0  0  0
    3.1580    3.8724   -3.3804 C   0  0  0  0  0  4           0  0  0
  1 10  1  0     0  0
  2 19  2  0     0  0
  3 20  2  0     0  0
  4 21  2  0     0  0
  5 19  1  0     0  0
  5 22  1  0     0  0
  6 20  1  0     0  0
  7 11  1  0     0  0
  7 12  1  0     0  0
  7 23  1  0     0  0
  8 10  1  0     0  0
  8 11  2  0     0  0
  9 13  1  0     0  0
  9 21  1  0     0  0
 10 12  2  0     0  0
 11 24  1  0     0  0
 12 25  1  0     0  0
 13 15  2  0     0  0
 13 16  1  0     0  0
 14 17  2  0     0  0
 14 18  1  0     0  0
 14 23  1  0     0  0
 15 17  1  0     0  0
 16 18  2  0     0  0
 19 25  1  0     0  0
 20 26  1  0     0  0
 21 27  1  0     0  0
 24 28  1  0     0  0
 26 29  1  0     0  0
 27 29  1  0     0  0
 28 30  1  0     0  0
 30 31  1  0     0  0
M  END
> <standard_type>
pIC50

> <# Confs.>
25

> <canonical_smiles>
CCCCC1=NC(Cl)=C(CC(OC)=O)N1CC2=CC=C(NC(CCCC(O)=O)=O)C=C2

> <standard_relation>
=

> <Publication_ID>
nan

> <predicted_activity_value>
5.0

> <actual_activity_value>
4.494850021680094

> <Compound>
22

> <standard_units>
nM

> hash
1317428753005583636

$$$$
21
XXILIB    08252103513D 0   0.00000     0.00000

 31 32  0     1  0            999 V2000
    5.0107   -1.4785    0.0029 Cl  0  0  0  0  0  1           0  0  0
    1.8226   -2.3628   -2.4525 O   0  0  0  0  0  2           0  0  0
   -4.7053    1.6953    5.9845 O   0  0  0  0  0  2           0  0  0
   -2.2675   -2.1750    5.9491 O   0  0  0  0  0  2           0  0  0
    1.1684   -4.3029   -1.3955 O   0  0  0  0  0  2           0  0  0
   -6.2994    1.5136    7.5950 O   0  0  0  0  0  2           0  0  0
    1.4518   -0.0000   -0.0000 N   0  0  0  0  0  3           0  0  0
    3.5355    0.7714   -0.0002 N   0  0  0  0  0  3           0  0  0
   -2.0310    0.0541    5.3477 N   0  0  0  0  0  3           0  0  0
    3.5508   -0.5984   -0.0049 C   0  0  0  0  0  4           0  0  0
    2.2641    1.1177    0.0000 C   0  0  0  0  0  4           0  0  0
    2.2681   -1.1139   -0.0135 C   0  0  0  0  0  4           0  0  0
   -1.5316    0.0009    4.0319 C   0  0  0  0  0  4           0  0  0
   -0.5420    0.0000    1.3966 C   0  0  0  0  0  4           0  0  0
   -1.2943   -1.2075    3.3691 C   0  0  0  0  0  4           0  0  0
   -1.2676    1.2075    3.3765 C   0  0  0  0  0  4           0  0  0
   -0.8001   -1.2055    2.0616 C   0  0  0  0  0  4           0  0  0
   -0.7748    1.2060    2.0696 C   0  0  0  0  0  4           0  0  0
    1.6091   -3.0111   -1.4368 C   0  0  0  0  0  4           0  0  0
   -5.3904    1.0038    6.7266 C   0  0  0  0  0  4           0  0  0
   -2.3670   -0.9753    6.1993 C   0  0  0  0  0  4           0  0  0
    0.9484   -4.9188   -2.6689 C   0  0  0  0  0  4           0  0  0
    0.0000    0.0000    0.0000 C   0  0  0  0  0  4           0  0  0
    1.7702    2.5201    0.0095 C   0  0  0  0  0  4           0  0  0
    1.7882   -2.5191   -0.0232 C   0  0  0  0  0  4           0  0  0
   -5.3156   -0.4952    6.7842 C   0  0  0  0  0  4           0  0  0
   -2.8701   -0.4868    7.5388 C   0  0  0  0  0  4           0  0  0
    2.5114    3.4050   -0.9886 C   0  0  0  0  0  4           0  0  0
   -4.2908   -0.9632    7.8082 C   0  0  0  0  0  4           0  0  0
    2.0385    4.8591   -1.0160 C   0  0  0  0  0  4           0  0  0
    2.8177    5.6809   -2.0296 C   0  0  0  0  0  4           0  0  0
  1 10  1  0     0  0
  2 19  2  0     0  0
  3 20  2  0     0  0
  4 21  2  0     0  0
  5 19  1  0     0  0
  5 22  1  0     0  0
  6 20  1  0     0  0
  7 11  1  0     0  0
  7 12  1  0     0  0
  7 23  1  0     0  0
  8 10  1  0     0  0
  8 11  2  0     0  0
  9 13  1  0     0  0
  9 21  1  0     0  0
 10 12  2  0     0  0
 11 24  1  0     0  0
 12 25  1  0     0  0
 13 15  2  0     0  0
 13 16  1  0     0  0
 14 17  2  0     0  0
 14 18  1  0     0  0
 14 23  1  0     0  0
 15 17  1  0     0  0
 16 18  2  0     0  0
 19 25  1  0     0  0
 20 26  1  0     0  0
 21 27  1  0     0  0
 24 28  1  0     0  0
 26 29  1  0     0  0
 27 29  1  0     0  0
 28 30  1  0     0  0
 30 31  1  0     0  0
M  END
> <standard_type>
pIC50

> <# Confs.>
25

> <canonical_smiles>
CCCCC1=NC(Cl)=C(CC(OC)=O)N1CC2=CC=C(NC(CCCC(O)=O)=O)C=C2

> <standard_relation>
=

> <Publication_ID>
nan

> <predicted_activity_value>
5.0

> <actual_activity_value>
4.494850021680094

> <Compound>
22

> <standard_units>
nM

> hash
1317428753005583636

$$$$
21
XXILIB    08252103513D 0   0.00000     0.00000

 31 32  0     1  0            999 V2000
    5.0107    1.4785   -0.0029 Cl  0  0  0  0  0  1           0  0  0
    1.3361    2.3614   -2.3638 O   0  0  0  0  0  2           0  0  0
   -4.7053    1.6953    5.9845 O   0  0  0  0  0  2           0  0  0
   -2.2675   -2.1750    5.9491 O   0  0  0  0  0  2           0  0  0
    1.8465    4.3824   -1.3818 O   0  0  0  0  0  2           0  0  0
   -6.2994    1.5136    7.5950 O   0  0  0  0  0  2           0  0  0
    1.4518    0.0000    0.0000 N   0  0  0  0  0  3           0  0  0
    3.5355   -0.7714    0.0002 N   0  0  0  0  0  3           0  0  0
   -2.0310    0.0541    5.3477 N   0  0  0  0  0  3           0  0  0
    3.5508    0.5984    0.0049 C   0  0  0  0  0  4           0  0  0
    2.2641   -1.1177    0.0000 C   0  0  0  0  0  4           0  0  0
    2.2681    1.1139    0.0135 C   0  0  0  0  0  4           0  0  0
   -1.5316    0.0009    4.0319 C   0  0  0  0  0  4           0  0  0
   -0.5420    0.0000    1.3966 C   0  0  0  0  0  4           0  0  0
   -1.2943   -1.2075    3.3691 C   0  0  0  0  0  4           0  0  0
   -1.2676    1.2075    3.3765 C   0  0  0  0  0  4           0  0  0
   -0.8001   -1.2055    2.0616 C   0  0  0  0  0  4           0  0  0
   -0.7748    1.2060    2.0696 C   0  0  0  0  0  4           0  0  0
    1.6228    3.0353   -1.3835 C   0  0  0  0  0  4           0  0  0
   -5.3904    1.0038    6.7266 C   0  0  0  0  0  4           0  0  0
   -2.3670   -0.9753    6.1993 C   0  0  0  0  0  4           0  0  0
    1.7263    5.0273   -2.6541 C   0  0  0  0  0  4           0  0  0
    0.0000    0.0000    0.0000 C   0  0  0  0  0  4           0  0  0
    1.7702   -2.5201   -0.0095 C   0  0  0  0  0  4           0  0  0
    1.7882    2.5191    0.0232 C   0  0  0  0  0  4           0  0  0
   -5.3156   -0.4952    6.7842 C   0  0  0  0  0  4           0  0  0
   -2.8701   -0.4868    7.5388 C   0  0  0  0  0  4           0  0  0
    2.5239   -3.3959   -1.0062 C   0  0  0  0  0  4           0  0  0
   -4.2908   -0.9632    7.8082 C   0  0  0  0  0  4           0  0  0
    2.4288   -2.9255   -2.4583 C   0  0  0  0  0  4           0  0  0
    3.2004   -3.8416   -3.3938 C   0  0  0  0  0  4           0  0  0
  1 10  1  0     0  0
  2 19  2  0     0  0
  3 20  2  0     0  0
  4 21  2  0     0  0
  5 19  1  0     0  0
  5 22  1  0     0  0
  6 20  1  0     0  0
  7 11  1  0     0  0
  7 12  1  0     0  0
  7 23  1  0     0  0
  8 10  1  0     0  0
  8 11  2  0     0  0
  9 13  1  0     0  0
  9 21  1  0     0  0
 10 12  2  0     0  0
 11 24  1  0     0  0
 12 25  1  0     0  0
 13 15  2  0     0  0
 13 16  1  0     0  0
 14 17  2  0     0  0
 14 18  1  0     0  0
 14 23  1  0     0  0
 15 17  1  0     0  0
 16 18  2  0     0  0
 19 25  1  0     0  0
 20 26  1  0     0  0
 21 27  1  0     0  0
 24 28  1  0     0  0
 26 29  1  0     0  0
 27 29  1  0     0  0
 28 30  1  0     0  0
 30 31  1  0     0  0
M  END
> <standard_type>
pIC50

> <# Confs.>
25

> <canonical_smiles>
CCCCC1=NC(Cl)=C(CC(OC)=O)N1CC2=CC=C(NC(CCCC(O)=O)=O)C=C2

> <standard_relation>
=

> <Publication_ID>
nan

> <predicted_activity_value>
5.0

> <actual_activity_value>
4.494850021680094

> <Compound>
22

> <standard_units>
nM

> hash
1317428753005583636

$$$$
21
XXILIB    08252103513D 0   0.00000     0.00000

 31 32  0     1  0            999 V2000
    5.0107   -1.4785    0.0029 Cl  0  0  0  0  0  1           0  0  0
    1.3129   -2.3205   -2.4027 O   0  0  0  0  0  2           0  0  0
   -6.9474   -2.3341    8.7259 O   0  0  0  0  0  2           0  0  0
   -2.2675   -2.1750    5.9491 O   0  0  0  0  0  2           0  0  0
    1.8330   -4.3580   -1.4605 O   0  0  0  0  0  2           0  0  0
   -5.7994   -3.9523    7.6162 O   0  0  0  0  0  2           0  0  0
    1.4518   -0.0000   -0.0000 N   0  0  0  0  0  3           0  0  0
    3.5355    0.7714   -0.0002 N   0  0  0  0  0  3           0  0  0
   -2.0310    0.0541    5.3477 N   0  0  0  0  0  3           0  0  0
    3.5508   -0.5984   -0.0049 C   0  0  0  0  0  4           0  0  0
    2.2641    1.1177    0.0000 C   0  0  0  0  0  4           0  0  0
    2.2681   -1.1139   -0.0135 C   0  0  0  0  0  4           0  0  0
   -1.5316    0.0009    4.0319 C   0  0  0  0  0  4           0  0  0
   -0.5420    0.0000    1.3966 C   0  0  0  0  0  4           0  0  0
   -1.2943   -1.2075    3.3691 C   0  0  0  0  0  4           0  0  0
   -1.2676    1.2075    3.3765 C   0  0  0  0  0  4           0  0  0
   -0.8001   -1.2055    2.0616 C   0  0  0  0  0  4           0  0  0
   -0.7748    1.2060    2.0696 C   0  0  0  0  0  4           0  0  0
    1.6091   -3.0111   -1.4368 C   0  0  0  0  0  4           0  0  0
   -6.0528   -2.6644    7.9584 C   0  0  0  0  0  4           0  0  0
   -2.3670   -0.9753    6.1993 C   0  0  0  0  0  4           0  0  0
    1.7008   -4.9810   -2.7425 C   0  0  0  0  0  4           0  0  0
    0.0000    0.0000    0.0000 C   0  0  0  0  0  4           0  0  0
    1.7702    2.5201    0.0095 C   0  0  0  0  0  4           0  0  0
    1.7882   -2.5191   -0.0232 C   0  0  0  0  0  4           0  0  0
   -5.1125   -1.6967    7.2987 C   0  0  0  0  0  4           0  0  0
   -2.8701   -0.4868    7.5388 C   0  0  0  0  0  4           0  0  0
    2.5114    3.4050   -0.9886 C   0  0  0  0  0  4           0  0  0
   -3.8708   -1.4597    8.1470 C   0  0  0  0  0  4           0  0  0
    2.3981    2.9479   -2.4436 C   0  0  0  0  0  4           0  0  0
    3.1580    3.8724   -3.3804 C   0  0  0  0  0  4           0  0  0
  1 10  1  0     0  0
  2 19  2  0     0  0
  3 20  2  0     0  0
  4 21  2  0     0  0
  5 19  1  0     0  0
  5 22  1  0     0  0
  6 20  1  0     0  0
  7 11  1  0     0  0
  7 12  1  0     0  0
  7 23  1  0     0  0
  8 10  1  0     0  0
  8 11  2  0     0  0
  9 13  1  0     0  0
  9 21  1  0     0  0
 10 12  2  0     0  0
 11 24  1  0     0  0
 12 25  1  0     0  0
 13 15  2  0     0  0
 13 16  1  0     0  0
 14 17  2  0     0  0
 14 18  1  0     0  0
 14 23  1  0     0  0
 15 17  1  0     0  0
 16 18  2  0     0  0
 19 25  1  0     0  0
 20 26  1  0     0  0
 21 27  1  0     0  0
 24 28  1  0     0  0
 26 29  1  0     0  0
 27 29  1  0     0  0
 28 30  1  0     0  0
 30 31  1  0     0  0
M  END
> <standard_type>
pIC50

> <# Confs.>
25

> <canonical_smiles>
CCCCC1=NC(Cl)=C(CC(OC)=O)N1CC2=CC=C(NC(CCCC(O)=O)=O)C=C2

> <standard_relation>
=

> <Publication_ID>
nan

> <predicted_activity_value>
5.0

> <actual_activity_value>
4.494850021680094

> <Compound>
22

> <standard_units>
nM

> hash
1317428753005583636

$$$$
21
XXILIB    08252103513D 0   0.00000     0.00000

 31 32  0     1  0            999 V2000
    5.0107   -1.4785    0.0029 Cl  0  0  0  0  0  1           0  0  0
    1.8226   -2.3628   -2.4525 O   0  0  0  0  0  2           0  0  0
   -5.8922    0.5157    7.8530 O   0  0  0  0  0  2           0  0  0
   -2.2675   -2.1750    5.9491 O   0  0  0  0  0  2           0  0  0
    1.1684   -4.3029   -1.3955 O   0  0  0  0  0  2           0  0  0
   -6.5400   -0.4214    5.8858 O   0  0  0  0  0  2           0  0  0
    1.4518   -0.0000   -0.0000 N   0  0  0  0  0  3           0  0  0
    3.5355    0.7714   -0.0002 N   0  0  0  0  0  3           0  0  0
   -2.0310    0.0541    5.3477 N   0  0  0  0  0  3           0  0  0
    3.5508   -0.5984   -0.0049 C   0  0  0  0  0  4           0  0  0
    2.2641    1.1177    0.0000 C   0  0  0  0  0  4           0  0  0
    2.2681   -1.1139   -0.0135 C   0  0  0  0  0  4           0  0  0
   -1.5316    0.0009    4.0319 C   0  0  0  0  0  4           0  0  0
   -0.5420    0.0000    1.3966 C   0  0  0  0  0  4           0  0  0
   -1.2943   -1.2075    3.3691 C   0  0  0  0  0  4           0  0  0
   -1.2676    1.2075    3.3765 C   0  0  0  0  0  4           0  0  0
   -0.8001   -1.2055    2.0616 C   0  0  0  0  0  4           0  0  0
   -0.7748    1.2060    2.0696 C   0  0  0  0  0  4           0  0  0
    1.6091   -3.0111   -1.4368 C   0  0  0  0  0  4           0  0  0
   -5.8711   -0.4214    7.0659 C   0  0  0  0  0  4           0  0  0
   -2.3670   -0.9753    6.1993 C   0  0  0  0  0  4           0  0  0
    0.9484   -4.9188   -2.6689 C   0  0  0  0  0  4           0  0  0
    0.0000    0.0000    0.0000 C   0  0  0  0  0  4           0  0  0
    1.7702    2.5201    0.0095 C   0  0  0  0  0  4           0  0  0
    1.7882   -2.5191   -0.0232 C   0  0  0  0  0  4           0  0  0
   -5.1125   -1.6967    7.2987 C   0  0  0  0  0  4           0  0  0
   -2.8701   -0.4868    7.5388 C   0  0  0  0  0  4           0  0  0
    2.5114    3.4050   -0.9886 C   0  0  0  0  0  4           0  0  0
   -3.8708   -1.4597    8.1470 C   0  0  0  0  0  4           0  0  0
    2.0385    4.8591   -1.0160 C   0  0  0  0  0  4           0  0  0
    2.8177    5.6809   -2.0296 C   0  0  0  0  0  4           0  0  0
  1 10  1  0     0  0
  2 19  2  0     0  0
  3 20  2  0     0  0
  4 21  2  0     0  0
  5 19  1  0     0  0
  5 22  1  0     0  0
  6 20  1  0     0  0
  7 11  1  0     0  0
  7 12  1  0     0  0
  7 23  1  0     0  0
  8 10  1  0     0  0
  8 11  2  0     0  0
  9 13  1  0     0  0
  9 21  1  0     0  0
 10 12  2  0     0  0
 11 24  1  0     0  0
 12 25  1  0     0  0
 13 15  2  0     0  0
 13 16  1  0     0  0
 14 17  2  0     0  0
 14 18  1  0     0  0
 14 23  1  0     0  0
 15 17  1  0     0  0
 16 18  2  0     0  0
 19 25  1  0     0  0
 20 26  1  0     0  0
 21 27  1  0     0  0
 24 28  1  0     0  0
 26 29  1  0     0  0
 27 29  1  0     0  0
 28 30  1  0     0  0
 30 31  1  0     0  0
M  END
> <standard_type>
pIC50

> <# Confs.>
25

> <canonical_smiles>
CCCCC1=NC(Cl)=C(CC(OC)=O)N1CC2=CC=C(NC(CCCC(O)=O)=O)C=C2

> <standard_relation>
=

> <Publication_ID>
nan

> <predicted_activity_value>
5.0

> <actual_activity_value>
4.494850021680094

> <Compound>
22

> <standard_units>
nM

> hash
1317428753005583636

$$$$
21
XXILIB    08252103513D 0   0.00000     0.00000

 31 32  0     1  0            999 V2000
    5.0107    1.4785   -0.0029 Cl  0  0  0  0  0  1           0  0  0
    1.3361    2.3614   -2.3638 O   0  0  0  0  0  2           0  0  0
   -5.8922    0.5157    7.8530 O   0  0  0  0  0  2           0  0  0
   -2.2675   -2.1750    5.9491 O   0  0  0  0  0  2           0  0  0
    1.8465    4.3824   -1.3818 O   0  0  0  0  0  2           0  0  0
   -6.5400   -0.4214    5.8858 O   0  0  0  0  0  2           0  0  0
    1.4518    0.0000    0.0000 N   0  0  0  0  0  3           0  0  0
    3.5355   -0.7714    0.0002 N   0  0  0  0  0  3           0  0  0
   -2.0310    0.0541    5.3477 N   0  0  0  0  0  3           0  0  0
    3.5508    0.5984    0.0049 C   0  0  0  0  0  4           0  0  0
    2.2641   -1.1177    0.0000 C   0  0  0  0  0  4           0  0  0
    2.2681    1.1139    0.0135 C   0  0  0  0  0  4           0  0  0
   -1.5316    0.0009    4.0319 C   0  0  0  0  0  4           0  0  0
   -0.5420    0.0000    1.3966 C   0  0  0  0  0  4           0  0  0
   -1.2943   -1.2075    3.3691 C   0  0  0  0  0  4           0  0  0
   -1.2676    1.2075    3.3765 C   0  0  0  0  0  4           0  0  0
   -0.8001   -1.2055    2.0616 C   0  0  0  0  0  4           0  0  0
   -0.7748    1.2060    2.0696 C   0  0  0  0  0  4           0  0  0
    1.6228    3.0353   -1.3835 C   0  0  0  0  0  4           0  0  0
   -5.8711   -0.4214    7.0659 C   0  0  0  0  0  4           0  0  0
   -2.3670   -0.9753    6.1993 C   0  0  0  0  0  4           0  0  0
    1.7263    5.0273   -2.6541 C   0  0  0  0  0  4           0  0  0
    0.0000    0.0000    0.0000 C   0  0  0  0  0  4           0  0  0
    1.7702   -2.5201   -0.0095 C   0  0  0  0  0  4           0  0  0
    1.7882    2.5191    0.0232 C   0  0  0  0  0  4           0  0  0
   -5.1125   -1.6967    7.2987 C   0  0  0  0  0  4           0  0  0
   -2.8701   -0.4868    7.5388 C   0  0  0  0  0  4           0  0  0
    2.5239   -3.3959   -1.0062 C   0  0  0  0  0  4           0  0  0
   -3.8708   -1.4597    8.1470 C   0  0  0  0  0  4           0  0  0
    2.4288   -2.9255   -2.4583 C   0  0  0  0  0  4           0  0  0
    3.2004   -3.8416   -3.3938 C   0  0  0  0  0  4           0  0  0
  1 10  1  0     0  0
  2 19  2  0     0  0
  3 20  2  0     0  0
  4 21  2  0     0  0
  5 19  1  0     0  0
  5 22  1  0     0  0
  6 20  1  0     0  0
  7 11  1  0     0  0
  7 12  1  0     0  0
  7 23  1  0     0  0
  8 10  1  0     0  0
  8 11  2  0     0  0
  9 13  1  0     0  0
  9 21  1  0     0  0
 10 12  2  0     0  0
 11 24  1  0     0  0
 12 25  1  0     0  0
 13 15  2  0     0  0
 13 16  1  0     0  0
 14 17  2  0     0  0
 14 18  1  0     0  0
 14 23  1  0     0  0
 15 17  1  0     0  0
 16 18  2  0     0  0
 19 25  1  0     0  0
 20 26  1  0     0  0
 21 27  1  0     0  0
 24 28  1  0     0  0
 26 29  1  0     0  0
 27 29  1  0     0  0
 28 30  1  0     0  0
 30 31  1  0     0  0
M  END
> <standard_type>
pIC50

> <# Confs.>
25

> <canonical_smiles>
CCCCC1=NC(Cl)=C(CC(OC)=O)N1CC2=CC=C(NC(CCCC(O)=O)=O)C=C2

> <standard_relation>
=

> <Publication_ID>
nan

> <predicted_activity_value>
5.0

> <actual_activity_value>
4.494850021680094

> <Compound>
22

> <standard_units>
nM

> hash
1317428753005583636

$$$$
21
XXILIB    08252103513D 0   0.00000     0.00000

 31 32  0     1  0            999 V2000
    5.0107   -1.4785    0.0029 Cl  0  0  0  0  0  1           0  0  0
    1.3129   -2.3205   -2.4027 O   0  0  0  0  0  2           0  0  0
   -7.1500   -0.1887    7.4551 O   0  0  0  0  0  2           0  0  0
   -2.2675   -2.1750    5.9491 O   0  0  0  0  0  2           0  0  0
    1.8330   -4.3580   -1.4605 O   0  0  0  0  0  2           0  0  0
   -7.3850   -2.3959    6.9644 O   0  0  0  0  0  2           0  0  0
    1.4518   -0.0000   -0.0000 N   0  0  0  0  0  3           0  0  0
    3.5355    0.7714   -0.0002 N   0  0  0  0  0  3           0  0  0
   -2.0310    0.0541    5.3477 N   0  0  0  0  0  3           0  0  0
    3.5508   -0.5984   -0.0049 C   0  0  0  0  0  4           0  0  0
    2.2641    1.1177    0.0000 C   0  0  0  0  0  4           0  0  0
    2.2681   -1.1139   -0.0135 C   0  0  0  0  0  4           0  0  0
   -1.5316    0.0009    4.0319 C   0  0  0  0  0  4           0  0  0
   -0.5420    0.0000    1.3966 C   0  0  0  0  0  4           0  0  0
   -1.2943   -1.2075    3.3691 C   0  0  0  0  0  4           0  0  0
   -1.2676    1.2075    3.3765 C   0  0  0  0  0  4           0  0  0
   -0.8001   -1.2055    2.0616 C   0  0  0  0  0  4           0  0  0
   -0.7748    1.2060    2.0696 C   0  0  0  0  0  4           0  0  0
    1.6091   -3.0111   -1.4368 C   0  0  0  0  0  4           0  0  0
   -6.6537   -1.2847    7.2295 C   0  0  0  0  0  4           0  0  0
   -2.3670   -0.9753    6.1993 C   0  0  0  0  0  4           0  0  0
    1.7008   -4.9810   -2.7425 C   0  0  0  0  0  4           0  0  0
    0.0000    0.0000    0.0000 C   0  0  0  0  0  4           0  0  0
    1.7702    2.5201    0.0095 C   0  0  0  0  0  4           0  0  0
    1.7882   -2.5191   -0.0232 C   0  0  0  0  0  4           0  0  0
   -5.1757   -1.5517    7.2220 C   0  0  0  0  0  4           0  0  0
   -2.8701   -0.4868    7.5388 C   0  0  0  0  0  4           0  0  0
    2.5114    3.4050   -0.9886 C   0  0  0  0  0  4           0  0  0
   -4.3798   -0.2907    7.5295 C   0  0  0  0  0  4           0  0  0
    2.3981    2.9479   -2.4436 C   0  0  0  0  0  4           0  0  0
    3.1580    3.8724   -3.3804 C   0  0  0  0  0  4           0  0  0
  1 10  1  0     0  0
  2 19  2  0     0  0
  3 20  2  0     0  0
  4 21  2  0     0  0
  5 19  1  0     0  0
  5 22  1  0     0  0
  6 20  1  0     0  0
  7 11  1  0     0  0
  7 12  1  0     0  0
  7 23  1  0     0  0
  8 10  1  0     0  0
  8 11  2  0     0  0
  9 13  1  0     0  0
  9 21  1  0     0  0
 10 12  2  0     0  0
 11 24  1  0     0  0
 12 25  1  0     0  0
 13 15  2  0     0  0
 13 16  1  0     0  0
 14 17  2  0     0  0
 14 18  1  0     0  0
 14 23  1  0     0  0
 15 17  1  0     0  0
 16 18  2  0     0  0
 19 25  1  0     0  0
 20 26  1  0     0  0
 21 27  1  0     0  0
 24 28  1  0     0  0
 26 29  1  0     0  0
 27 29  1  0     0  0
 28 30  1  0     0  0
 30 31  1  0     0  0
M  END
> <standard_type>
pIC50

> <# Confs.>
25

> <canonical_smiles>
CCCCC1=NC(Cl)=C(CC(OC)=O)N1CC2=CC=C(NC(CCCC(O)=O)=O)C=C2

> <standard_relation>
=

> <Publication_ID>
nan

> <predicted_activity_value>
5.0

> <actual_activity_value>
4.494850021680094

> <Compound>
22

> <standard_units>
nM

> hash
1317428753005583636

$$$$
21
XXILIB    08252103513D 0   0.00000     0.00000

 31 32  0     1  0            999 V2000
    5.0107   -1.4785    0.0029 Cl  0  0  0  0  0  1           0  0  0
    1.3129   -2.3205   -2.4027 O   0  0  0  0  0  2           0  0  0
   -3.9882    2.3707    8.4449 O   0  0  0  0  0  2           0  0  0
   -2.2675   -2.1750    5.9491 O   0  0  0  0  0  2           0  0  0
    1.8330   -4.3580   -1.4605 O   0  0  0  0  0  2           0  0  0
   -4.3175    1.6918   10.5893 O   0  0  0  0  0  2           0  0  0
    1.4518   -0.0000   -0.0000 N   0  0  0  0  0  3           0  0  0
    3.5355    0.7714   -0.0002 N   0  0  0  0  0  3           0  0  0
   -2.0310    0.0541    5.3477 N   0  0  0  0  0  3           0  0  0
    3.5508   -0.5984   -0.0049 C   0  0  0  0  0  4           0  0  0
    2.2641    1.1177    0.0000 C   0  0  0  0  0  4           0  0  0
    2.2681   -1.1139   -0.0135 C   0  0  0  0  0  4           0  0  0
   -1.5316    0.0009    4.0319 C   0  0  0  0  0  4           0  0  0
   -0.5420    0.0000    1.3966 C   0  0  0  0  0  4           0  0  0
   -1.2943   -1.2075    3.3691 C   0  0  0  0  0  4           0  0  0
   -1.2676    1.2075    3.3765 C   0  0  0  0  0  4           0  0  0
   -0.8001   -1.2055    2.0616 C   0  0  0  0  0  4           0  0  0
   -0.7748    1.2060    2.0696 C   0  0  0  0  0  4           0  0  0
    1.6091   -3.0111   -1.4368 C   0  0  0  0  0  4           0  0  0
   -4.3754    1.5282    9.2440 C   0  0  0  0  0  4           0  0  0
   -2.3670   -0.9753    6.1993 C   0  0  0  0  0  4           0  0  0
    1.7008   -4.9810   -2.7425 C   0  0  0  0  0  4           0  0  0
    0.0000    0.0000    0.0000 C   0  0  0  0  0  4           0  0  0
    1.7702    2.5201    0.0095 C   0  0  0  0  0  4           0  0  0
    1.7882   -2.5191   -0.0232 C   0  0  0  0  0  4           0  0  0
   -4.9581    0.2014    8.8490 C   0  0  0  0  0  4           0  0  0
   -2.8701   -0.4868    7.5388 C   0  0  0  0  0  4           0  0  0
    2.5114    3.4050   -0.9886 C   0  0  0  0  0  4           0  0  0
   -4.3798   -0.2907    7.5295 C   0  0  0  0  0  4           0  0  0
    2.3981    2.9479   -2.4436 C   0  0  0  0  0  4           0  0  0
    3.1580    3.8724   -3.3804 C   0  0  0  0  0  4           0  0  0
  1 10  1  0     0  0
  2 19  2  0     0  0
  3 20  2  0     0  0
  4 21  2  0     0  0
  5 19  1  0     0  0
  5 22  1  0     0  0
  6 20  1  0     0  0
  7 11  1  0     0  0
  7 12  1  0     0  0
  7 23  1  0     0  0
  8 10  1  0     0  0
  8 11  2  0     0  0
  9 13  1  0     0  0
  9 21  1  0     0  0
 10 12  2  0     0  0
 11 24  1  0     0  0
 12 25  1  0     0  0
 13 15  2  0     0  0
 13 16  1  0     0  0
 14 17  2  0     0  0
 14 18  1  0     0  0
 14 23  1  0     0  0
 15 17  1  0     0  0
 16 18  2  0     0  0
 19 25  1  0     0  0
 20 26  1  0     0  0
 21 27  1  0     0  0
 24 28  1  0     0  0
 26 29  1  0     0  0
 27 29  1  0     0  0
 28 30  1  0     0  0
 30 31  1  0     0  0
M  END
> <standard_type>
pIC50

> <# Confs.>
25

> <canonical_smiles>
CCCCC1=NC(Cl)=C(CC(OC)=O)N1CC2=CC=C(NC(CCCC(O)=O)=O)C=C2

> <standard_relation>
=

> <Publication_ID>
nan

> <predicted_activity_value>
5.0

> <actual_activity_value>
4.494850021680094

> <Compound>
22

> <standard_units>
nM

> hash
1317428753005583636

$$$$
21
XXILIB    08252103513D 0   0.00000     0.00000

 31 32  0     1  0            999 V2000
    5.0107   -1.4785    0.0029 Cl  0  0  0  0  0  1           0  0  0
    1.3129   -2.3205   -2.4027 O   0  0  0  0  0  2           0  0  0
   -2.8429   -2.4369   10.0752 O   0  0  0  0  0  2           0  0  0
   -2.2675   -2.1750    5.9491 O   0  0  0  0  0  2           0  0  0
    1.8330   -4.3580   -1.4605 O   0  0  0  0  0  2           0  0  0
   -1.4370   -3.9192    9.0782 O   0  0  0  0  0  2           0  0  0
    1.4518   -0.0000   -0.0000 N   0  0  0  0  0  3           0  0  0
    3.5355    0.7714   -0.0002 N   0  0  0  0  0  3           0  0  0
   -2.0310    0.0541    5.3477 N   0  0  0  0  0  3           0  0  0
    3.5508   -0.5984   -0.0049 C   0  0  0  0  0  4           0  0  0
    2.2641    1.1177    0.0000 C   0  0  0  0  0  4           0  0  0
    2.2681   -1.1139   -0.0135 C   0  0  0  0  0  4           0  0  0
   -1.5316    0.0009    4.0319 C   0  0  0  0  0  4           0  0  0
   -0.5420    0.0000    1.3966 C   0  0  0  0  0  4           0  0  0
   -1.2943   -1.2075    3.3691 C   0  0  0  0  0  4           0  0  0
   -1.2676    1.2075    3.3765 C   0  0  0  0  0  4           0  0  0
   -0.8001   -1.2055    2.0616 C   0  0  0  0  0  4           0  0  0
   -0.7748    1.2060    2.0696 C   0  0  0  0  0  4           0  0  0
    1.6091   -3.0111   -1.4368 C   0  0  0  0  0  4           0  0  0
   -1.8519   -2.6671    9.3945 C   0  0  0  0  0  4           0  0  0
   -2.3670   -0.9753    6.1993 C   0  0  0  0  0  4           0  0  0
    1.7008   -4.9810   -2.7425 C   0  0  0  0  0  4           0  0  0
    0.0000    0.0000    0.0000 C   0  0  0  0  0  4           0  0  0
    1.7702    2.5201    0.0095 C   0  0  0  0  0  4           0  0  0
    1.7882   -2.5191   -0.0232 C   0  0  0  0  0  4           0  0  0
   -0.9589   -1.6025    8.8244 C   0  0  0  0  0  4           0  0  0
   -2.8701   -0.4868    7.5388 C   0  0  0  0  0  4           0  0  0
    2.5114    3.4050   -0.9886 C   0  0  0  0  0  4           0  0  0
   -1.7314   -0.3226    8.5358 C   0  0  0  0  0  4           0  0  0
    2.3981    2.9479   -2.4436 C   0  0  0  0  0  4           0  0  0
    3.1580    3.8724   -3.3804 C   0  0  0  0  0  4           0  0  0
  1 10  1  0     0  0
  2 19  2  0     0  0
  3 20  2  0     0  0
  4 21  2  0     0  0
  5 19  1  0     0  0
  5 22  1  0     0  0
  6 20  1  0     0  0
  7 11  1  0     0  0
  7 12  1  0     0  0
  7 23  1  0     0  0
  8 10  1  0     0  0
  8 11  2  0     0  0
  9 13  1  0     0  0
  9 21  1  0     0  0
 10 12  2  0     0  0
 11 24  1  0     0  0
 12 25  1  0     0  0
 13 15  2  0     0  0
 13 16  1  0     0  0
 14 17  2  0     0  0
 14 18  1  0     0  0
 14 23  1  0     0  0
 15 17  1  0     0  0
 16 18  2  0     0  0
 19 25  1  0     0  0
 20 26  1  0     0  0
 21 27  1  0     0  0
 24 28  1  0     0  0
 26 29  1  0     0  0
 27 29  1  0     0  0
 28 30  1  0     0  0
 30 31  1  0     0  0
M  END
> <standard_type>
pIC50

> <# Confs.>
25

> <canonical_smiles>
CCCCC1=NC(Cl)=C(CC(OC)=O)N1CC2=CC=C(NC(CCCC(O)=O)=O)C=C2

> <standard_relation>
=

> <Publication_ID>
nan

> <predicted_activity_value>
5.0

> <actual_activity_value>
4.494850021680094

> <Compound>
22

> <standard_units>
nM

> hash
1317428753005583636

$$$$
21
XXILIB    08252103513D 0   0.00000     0.00000

 31 32  0     1  0            999 V2000
    5.0107   -1.4785    0.0029 Cl  0  0  0  0  0  1           0  0  0
    1.3129   -2.3205   -2.4027 O   0  0  0  0  0  2           0  0  0
    0.3906   -0.2796   10.3205 O   0  0  0  0  0  2           0  0  0
   -2.2675   -2.1750    5.9491 O   0  0  0  0  0  2           0  0  0
    1.8330   -4.3580   -1.4605 O   0  0  0  0  0  2           0  0  0
    0.8541   -2.4923   10.0820 O   0  0  0  0  0  2           0  0  0
    1.4518   -0.0000   -0.0000 N   0  0  0  0  0  3           0  0  0
    3.5355    0.7714   -0.0002 N   0  0  0  0  0  3           0  0  0
   -2.0310    0.0541    5.3477 N   0  0  0  0  0  3           0  0  0
    3.5508   -0.5984   -0.0049 C   0  0  0  0  0  4           0  0  0
    2.2641    1.1177    0.0000 C   0  0  0  0  0  4           0  0  0
    2.2681   -1.1139   -0.0135 C   0  0  0  0  0  4           0  0  0
   -1.5316    0.0009    4.0319 C   0  0  0  0  0  4           0  0  0
   -0.5420    0.0000    1.3966 C   0  0  0  0  0  4           0  0  0
   -1.2943   -1.2075    3.3691 C   0  0  0  0  0  4           0  0  0
   -1.2676    1.2075    3.3765 C   0  0  0  0  0  4           0  0  0
   -0.8001   -1.2055    2.0616 C   0  0  0  0  0  4           0  0  0
   -0.7748    1.2060    2.0696 C   0  0  0  0  0  4           0  0  0
    1.6091   -3.0111   -1.4368 C   0  0  0  0  0  4           0  0  0
    0.1464   -1.3666    9.8135 C   0  0  0  0  0  4           0  0  0
   -2.3670   -0.9753    6.1993 C   0  0  0  0  0  4           0  0  0
    1.7008   -4.9810   -2.7425 C   0  0  0  0  0  4           0  0  0
    0.0000    0.0000    0.0000 C   0  0  0  0  0  4           0  0  0
    1.7702    2.5201    0.0095 C   0  0  0  0  0  4           0  0  0
    1.7882   -2.5191   -0.0232 C   0  0  0  0  0  4           0  0  0
   -0.9589   -1.6025    8.8244 C   0  0  0  0  0  4           0  0  0
   -2.8701   -0.4868    7.5388 C   0  0  0  0  0  4           0  0  0
    2.5114    3.4050   -0.9886 C   0  0  0  0  0  4           0  0  0
   -1.7314   -0.3226    8.5358 C   0  0  0  0  0  4           0  0  0
    2.3981    2.9479   -2.4436 C   0  0  0  0  0  4           0  0  0
    3.1580    3.8724   -3.3804 C   0  0  0  0  0  4           0  0  0
  1 10  1  0     0  0
  2 19  2  0     0  0
  3 20  2  0     0  0
  4 21  2  0     0  0
  5 19  1  0     0  0
  5 22  1  0     0  0
  6 20  1  0     0  0
  7 11  1  0     0  0
  7 12  1  0     0  0
  7 23  1  0     0  0
  8 10  1  0     0  0
  8 11  2  0     0  0
  9 13  1  0     0  0
  9 21  1  0     0  0
 10 12  2  0     0  0
 11 24  1  0     0  0
 12 25  1  0     0  0
 13 15  2  0     0  0
 13 16  1  0     0  0
 14 17  2  0     0  0
 14 18  1  0     0  0
 14 23  1  0     0  0
 15 17  1  0     0  0
 16 18  2  0     0  0
 19 25  1  0     0  0
 20 26  1  0     0  0
 21 27  1  0     0  0
 24 28  1  0     0  0
 26 29  1  0     0  0
 27 29  1  0     0  0
 28 30  1  0     0  0
 30 31  1  0     0  0
M  END
> <standard_type>
pIC50

> <# Confs.>
25

> <canonical_smiles>
CCCCC1=NC(Cl)=C(CC(OC)=O)N1CC2=CC=C(NC(CCCC(O)=O)=O)C=C2

> <standard_relation>
=

> <Publication_ID>
nan

> <predicted_activity_value>
5.0

> <actual_activity_value>
4.494850021680094

> <Compound>
22

> <standard_units>
nM

> hash
1317428753005583636

$$$$
21
XXILIB    08252103513D 0   0.00000     0.00000

 31 32  0     1  0            999 V2000
    5.0107   -1.4785    0.0029 Cl  0  0  0  0  0  1           0  0  0
    1.3129   -2.3205   -2.4027 O   0  0  0  0  0  2           0  0  0
   -4.9875    0.8278    9.6206 O   0  0  0  0  0  2           0  0  0
   -2.2675   -2.1750    5.9491 O   0  0  0  0  0  2           0  0  0
    1.8330   -4.3580   -1.4605 O   0  0  0  0  0  2           0  0  0
   -6.1235   -1.1380    9.7334 O   0  0  0  0  0  2           0  0  0
    1.4518   -0.0000   -0.0000 N   0  0  0  0  0  3           0  0  0
    3.5355    0.7714   -0.0002 N   0  0  0  0  0  3           0  0  0
   -2.0310    0.0541    5.3477 N   0  0  0  0  0  3           0  0  0
    3.5508   -0.5984   -0.0049 C   0  0  0  0  0  4           0  0  0
    2.2641    1.1177    0.0000 C   0  0  0  0  0  4           0  0  0
    2.2681   -1.1139   -0.0135 C   0  0  0  0  0  4           0  0  0
   -1.5316    0.0009    4.0319 C   0  0  0  0  0  4           0  0  0
   -0.5420    0.0000    1.3966 C   0  0  0  0  0  4           0  0  0
   -1.2943   -1.2075    3.3691 C   0  0  0  0  0  4           0  0  0
   -1.2676    1.2075    3.3765 C   0  0  0  0  0  4           0  0  0
   -0.8001   -1.2055    2.0616 C   0  0  0  0  0  4           0  0  0
   -0.7748    1.2060    2.0696 C   0  0  0  0  0  4           0  0  0
    1.6091   -3.0111   -1.4368 C   0  0  0  0  0  4           0  0  0
   -4.9903   -0.3927    9.7136 C   0  0  0  0  0  4           0  0  0
   -2.3670   -0.9753    6.1993 C   0  0  0  0  0  4           0  0  0
    1.7008   -4.9810   -2.7425 C   0  0  0  0  0  4           0  0  0
    0.0000    0.0000    0.0000 C   0  0  0  0  0  4           0  0  0
    1.7702    2.5201    0.0095 C   0  0  0  0  0  4           0  0  0
    1.7882   -2.5191   -0.0232 C   0  0  0  0  0  4           0  0  0
   -3.7479   -1.2292    9.8253 C   0  0  0  0  0  4           0  0  0
   -2.8701   -0.4868    7.5388 C   0  0  0  0  0  4           0  0  0
    2.5114    3.4050   -0.9886 C   0  0  0  0  0  4           0  0  0
   -3.2323   -1.6473    8.4552 C   0  0  0  0  0  4           0  0  0
    2.3981    2.9479   -2.4436 C   0  0  0  0  0  4           0  0  0
    3.1580    3.8724   -3.3804 C   0  0  0  0  0  4           0  0  0
  1 10  1  0     0  0
  2 19  2  0     0  0
  3 20  2  0     0  0
  4 21  2  0     0  0
  5 19  1  0     0  0
  5 22  1  0     0  0
  6 20  1  0     0  0
  7 11  1  0     0  0
  7 12  1  0     0  0
  7 23  1  0     0  0
  8 10  1  0     0  0
  8 11  2  0     0  0
  9 13  1  0     0  0
  9 21  1  0     0  0
 10 12  2  0     0  0
 11 24  1  0     0  0
 12 25  1  0     0  0
 13 15  2  0     0  0
 13 16  1  0     0  0
 14 17  2  0     0  0
 14 18  1  0     0  0
 14 23  1  0     0  0
 15 17  1  0     0  0
 16 18  2  0     0  0
 19 25  1  0     0  0
 20 26  1  0     0  0
 21 27  1  0     0  0
 24 28  1  0     0  0
 26 29  1  0     0  0
 27 29  1  0     0  0
 28 30  1  0     0  0
 30 31  1  0     0  0
M  END
> <standard_type>
pIC50

> <# Confs.>
25

> <canonical_smiles>
CCCCC1=NC(Cl)=C(CC(OC)=O)N1CC2=CC=C(NC(CCCC(O)=O)=O)C=C2

> <standard_relation>
=

> <Publication_ID>
nan

> <predicted_activity_value>
5.0

> <actual_activity_value>
4.494850021680094

> <Compound>
22

> <standard_units>
nM

> hash
1317428753005583636

$$$$
21
XXILIB    08252103513D 0   0.00000     0.00000

 31 32  0     1  0            999 V2000
    5.0107   -1.4785    0.0029 Cl  0  0  0  0  0  1           0  0  0
    1.3129   -2.3205   -2.4027 O   0  0  0  0  0  2           0  0  0
   -2.6422    0.7996   10.5118 O   0  0  0  0  0  2           0  0  0
   -2.2675   -2.1750    5.9491 O   0  0  0  0  0  2           0  0  0
    1.8330   -4.3580   -1.4605 O   0  0  0  0  0  2           0  0  0
   -1.9008   -1.1899   11.3244 O   0  0  0  0  0  2           0  0  0
    1.4518   -0.0000   -0.0000 N   0  0  0  0  0  3           0  0  0
    3.5355    0.7714   -0.0002 N   0  0  0  0  0  3           0  0  0
   -2.0310    0.0541    5.3477 N   0  0  0  0  0  3           0  0  0
    3.5508   -0.5984   -0.0049 C   0  0  0  0  0  4           0  0  0
    2.2641    1.1177    0.0000 C   0  0  0  0  0  4           0  0  0
    2.2681   -1.1139   -0.0135 C   0  0  0  0  0  4           0  0  0
   -1.5316    0.0009    4.0319 C   0  0  0  0  0  4           0  0  0
   -0.5420    0.0000    1.3966 C   0  0  0  0  0  4           0  0  0
   -1.2943   -1.2075    3.3691 C   0  0  0  0  0  4           0  0  0
   -1.2676    1.2075    3.3765 C   0  0  0  0  0  4           0  0  0
   -0.8001   -1.2055    2.0616 C   0  0  0  0  0  4           0  0  0
   -0.7748    1.2060    2.0696 C   0  0  0  0  0  4           0  0  0
    1.6091   -3.0111   -1.4368 C   0  0  0  0  0  4           0  0  0
   -2.7275   -0.4199   10.5734 C   0  0  0  0  0  4           0  0  0
   -2.3670   -0.9753    6.1993 C   0  0  0  0  0  4           0  0  0
    1.7008   -4.9810   -2.7425 C   0  0  0  0  0  4           0  0  0
    0.0000    0.0000    0.0000 C   0  0  0  0  0  4           0  0  0
    1.7702    2.5201    0.0095 C   0  0  0  0  0  4           0  0  0
    1.7882   -2.5191   -0.0232 C   0  0  0  0  0  4           0  0  0
   -3.7479   -1.2292    9.8253 C   0  0  0  0  0  4           0  0  0
   -2.8701   -0.4868    7.5388 C   0  0  0  0  0  4           0  0  0
    2.5114    3.4050   -0.9886 C   0  0  0  0  0  4           0  0  0
   -3.2323   -1.6473    8.4552 C   0  0  0  0  0  4           0  0  0
    2.3981    2.9479   -2.4436 C   0  0  0  0  0  4           0  0  0
    3.1580    3.8724   -3.3804 C   0  0  0  0  0  4           0  0  0
  1 10  1  0     0  0
  2 19  2  0     0  0
  3 20  2  0     0  0
  4 21  2  0     0  0
  5 19  1  0     0  0
  5 22  1  0     0  0
  6 20  1  0     0  0
  7 11  1  0     0  0
  7 12  1  0     0  0
  7 23  1  0     0  0
  8 10  1  0     0  0
  8 11  2  0     0  0
  9 13  1  0     0  0
  9 21  1  0     0  0
 10 12  2  0     0  0
 11 24  1  0     0  0
 12 25  1  0     0  0
 13 15  2  0     0  0
 13 16  1  0     0  0
 14 17  2  0     0  0
 14 18  1  0     0  0
 14 23  1  0     0  0
 15 17  1  0     0  0
 16 18  2  0     0  0
 19 25  1  0     0  0
 20 26  1  0     0  0
 21 27  1  0     0  0
 24 28  1  0     0  0
 26 29  1  0     0  0
 27 29  1  0     0  0
 28 30  1  0     0  0
 30 31  1  0     0  0
M  END
> <standard_type>
pIC50

> <# Confs.>
25

> <canonical_smiles>
CCCCC1=NC(Cl)=C(CC(OC)=O)N1CC2=CC=C(NC(CCCC(O)=O)=O)C=C2

> <standard_relation>
=

> <Publication_ID>
nan

> <predicted_activity_value>
5.0

> <actual_activity_value>
4.494850021680094

> <Compound>
22

> <standard_units>
nM

> hash
1317428753005583636

$$$$
21
XXILIB    08252103513D 0   0.00000     0.00000

 31 32  0     1  0            999 V2000
    5.0107    1.4785   -0.0029 Cl  0  0  0  0  0  1           0  0  0
    1.8462    2.4044   -2.4080 O   0  0  0  0  0  2           0  0  0
   -4.7053    1.6953    5.9845 O   0  0  0  0  0  2           0  0  0
   -2.2675   -2.1750    5.9491 O   0  0  0  0  0  2           0  0  0
    1.1813    4.3261   -1.3242 O   0  0  0  0  0  2           0  0  0
   -6.2994    1.5136    7.5950 O   0  0  0  0  0  2           0  0  0
    1.4518    0.0000    0.0000 N   0  0  0  0  0  3           0  0  0
    3.5355   -0.7714    0.0002 N   0  0  0  0  0  3           0  0  0
   -2.0310    0.0541    5.3477 N   0  0  0  0  0  3           0  0  0
    3.5508    0.5984    0.0049 C   0  0  0  0  0  4           0  0  0
    2.2641   -1.1177    0.0000 C   0  0  0  0  0  4           0  0  0
    2.2681    1.1139    0.0135 C   0  0  0  0  0  4           0  0  0
   -1.5316    0.0009    4.0319 C   0  0  0  0  0  4           0  0  0
   -0.5420    0.0000    1.3966 C   0  0  0  0  0  4           0  0  0
   -1.2943   -1.2075    3.3691 C   0  0  0  0  0  4           0  0  0
   -1.2676    1.2075    3.3765 C   0  0  0  0  0  4           0  0  0
   -0.8001   -1.2055    2.0616 C   0  0  0  0  0  4           0  0  0
   -0.7748    1.2060    2.0696 C   0  0  0  0  0  4           0  0  0
    1.6228    3.0353   -1.3835 C   0  0  0  0  0  4           0  0  0
   -5.3904    1.0038    6.7266 C   0  0  0  0  0  4           0  0  0
   -2.3670   -0.9753    6.1993 C   0  0  0  0  0  4           0  0  0
    0.9732    4.9636   -2.5890 C   0  0  0  0  0  4           0  0  0
    0.0000    0.0000    0.0000 C   0  0  0  0  0  4           0  0  0
    1.7702   -2.5201   -0.0095 C   0  0  0  0  0  4           0  0  0
    1.7882    2.5191    0.0232 C   0  0  0  0  0  4           0  0  0
   -5.3156   -0.4952    6.7842 C   0  0  0  0  0  4           0  0  0
   -2.8701   -0.4868    7.5388 C   0  0  0  0  0  4           0  0  0
    2.5239   -3.3959   -1.0062 C   0  0  0  0  0  4           0  0  0
   -4.2908   -0.9632    7.8082 C   0  0  0  0  0  4           0  0  0
    2.0514   -4.8497   -1.0528 C   0  0  0  0  0  4           0  0  0
    2.8433   -5.6623   -2.0640 C   0  0  0  0  0  4           0  0  0
  1 10  1  0     0  0
  2 19  2  0     0  0
  3 20  2  0     0  0
  4 21  2  0     0  0
  5 19  1  0     0  0
  5 22  1  0     0  0
  6 20  1  0     0  0
  7 11  1  0     0  0
  7 12  1  0     0  0
  7 23  1  0     0  0
  8 10  1  0     0  0
  8 11  2  0     0  0
  9 13  1  0     0  0
  9 21  1  0     0  0
 10 12  2  0     0  0
 11 24  1  0     0  0
 12 25  1  0     0  0
 13 15  2  0     0  0
 13 16  1  0     0  0
 14 17  2  0     0  0
 14 18  1  0     0  0
 14 23  1  0     0  0
 15 17  1  0     0  0
 16 18  2  0     0  0
 19 25  1  0     0  0
 20 26  1  0     0  0
 21 27  1  0     0  0
 24 28  1  0     0  0
 26 29  1  0     0  0
 27 29  1  0     0  0
 28 30  1  0     0  0
 30 31  1  0     0  0
M  END
> <standard_type>
pIC50

> <# Confs.>
25

> <canonical_smiles>
CCCCC1=NC(Cl)=C(CC(OC)=O)N1CC2=CC=C(NC(CCCC(O)=O)=O)C=C2

> <standard_relation>
=

> <Publication_ID>
nan

> <predicted_activity_value>
5.0

> <actual_activity_value>
4.494850021680094

> <Compound>
22

> <standard_units>
nM

> hash
1317428753005583636

$$$$
21
XXILIB    08252103513D 0   0.00000     0.00000

 31 32  0     1  0            999 V2000
    5.0107   -1.4785    0.0029 Cl  0  0  0  0  0  1           0  0  0
    1.8226   -2.3628   -2.4525 O   0  0  0  0  0  2           0  0  0
   -5.6744    0.3287    6.1189 O   0  0  0  0  0  2           0  0  0
   -2.2675   -2.1750    5.9491 O   0  0  0  0  0  2           0  0  0
    1.1684   -4.3029   -1.3955 O   0  0  0  0  0  2           0  0  0
   -6.7989   -0.1846    8.0267 O   0  0  0  0  0  2           0  0  0
    1.4518   -0.0000   -0.0000 N   0  0  0  0  0  3           0  0  0
    3.5355    0.7714   -0.0002 N   0  0  0  0  0  3           0  0  0
   -2.0310    0.0541    5.3477 N   0  0  0  0  0  3           0  0  0
    3.5508   -0.5984   -0.0049 C   0  0  0  0  0  4           0  0  0
    2.2641    1.1177    0.0000 C   0  0  0  0  0  4           0  0  0
    2.2681   -1.1139   -0.0135 C   0  0  0  0  0  4           0  0  0
   -1.5316    0.0009    4.0319 C   0  0  0  0  0  4           0  0  0
   -0.5420    0.0000    1.3966 C   0  0  0  0  0  4           0  0  0
   -1.2943   -1.2075    3.3691 C   0  0  0  0  0  4           0  0  0
   -1.2676    1.2075    3.3765 C   0  0  0  0  0  4           0  0  0
   -0.8001   -1.2055    2.0616 C   0  0  0  0  0  4           0  0  0
   -0.7748    1.2060    2.0696 C   0  0  0  0  0  4           0  0  0
    1.6091   -3.0111   -1.4368 C   0  0  0  0  0  4           0  0  0
   -5.8711   -0.4214    7.0659 C   0  0  0  0  0  4           0  0  0
   -2.3670   -0.9753    6.1993 C   0  0  0  0  0  4           0  0  0
    0.9484   -4.9188   -2.6689 C   0  0  0  0  0  4           0  0  0
    0.0000    0.0000    0.0000 C   0  0  0  0  0  4           0  0  0
    1.7702    2.5201    0.0095 C   0  0  0  0  0  4           0  0  0
    1.7882   -2.5191   -0.0232 C   0  0  0  0  0  4           0  0  0
   -5.1125   -1.6967    7.2987 C   0  0  0  0  0  4           0  0  0
   -2.8701   -0.4868    7.5388 C   0  0  0  0  0  4           0  0  0
    2.5114    3.4050   -0.9886 C   0  0  0  0  0  4           0  0  0
   -3.8708   -1.4597    8.1470 C   0  0  0  0  0  4           0  0  0
    2.3981    2.9479   -2.4436 C   0  0  0  0  0  4           0  0  0
    3.1580    3.8724   -3.3804 C   0  0  0  0  0  4           0  0  0
  1 10  1  0     0  0
  2 19  2  0     0  0
  3 20  2  0     0  0
  4 21  2  0     0  0
  5 19  1  0     0  0
  5 22  1  0     0  0
  6 20  1  0     0  0
  7 11  1  0     0  0
  7 12  1  0     0  0
  7 23  1  0     0  0
  8 10  1  0     0  0
  8 11  2  0     0  0
  9 13  1  0     0  0
  9 21  1  0     0  0
 10 12  2  0     0  0
 11 24  1  0     0  0
 12 25  1  0     0  0
 13 15  2  0     0  0
 13 16  1  0     0  0
 14 17  2  0     0  0
 14 18  1  0     0  0
 14 23  1  0     0  0
 15 17  1  0     0  0
 16 18  2  0     0  0
 19 25  1  0     0  0
 20 26  1  0     0  0
 21 27  1  0     0  0
 24 28  1  0     0  0
 26 29  1  0     0  0
 27 29  1  0     0  0
 28 30  1  0     0  0
 30 31  1  0     0  0
M  END
> <standard_type>
pIC50

> <# Confs.>
25

> <canonical_smiles>
CCCCC1=NC(Cl)=C(CC(OC)=O)N1CC2=CC=C(NC(CCCC(O)=O)=O)C=C2

> <standard_relation>
=

> <Publication_ID>
nan

> <predicted_activity_value>
5.0

> <actual_activity_value>
4.494850021680094

> <Compound>
22

> <standard_units>
nM

> hash
1317428753005583636

$$$$
21
XXILIB    08252103513D 0   0.00000     0.00000

 31 32  0     1  0            999 V2000
    5.0107   -1.4785    0.0029 Cl  0  0  0  0  0  1           0  0  0
    1.3129   -2.3205   -2.4027 O   0  0  0  0  0  2           0  0  0
   -4.6157   -2.4155    9.4015 O   0  0  0  0  0  2           0  0  0
   -2.2675   -2.1750    5.9491 O   0  0  0  0  0  2           0  0  0
    1.8330   -4.3580   -1.4605 O   0  0  0  0  0  2           0  0  0
   -5.0227   -3.8758    7.7075 O   0  0  0  0  0  2           0  0  0
    1.4518   -0.0000   -0.0000 N   0  0  0  0  0  3           0  0  0
    3.5355    0.7714   -0.0002 N   0  0  0  0  0  3           0  0  0
   -2.0310    0.0541    5.3477 N   0  0  0  0  0  3           0  0  0
    3.5508   -0.5984   -0.0049 C   0  0  0  0  0  4           0  0  0
    2.2641    1.1177    0.0000 C   0  0  0  0  0  4           0  0  0
    2.2681   -1.1139   -0.0135 C   0  0  0  0  0  4           0  0  0
   -1.5316    0.0009    4.0319 C   0  0  0  0  0  4           0  0  0
   -0.5420    0.0000    1.3966 C   0  0  0  0  0  4           0  0  0
   -1.2943   -1.2075    3.3691 C   0  0  0  0  0  4           0  0  0
   -1.2676    1.2075    3.3765 C   0  0  0  0  0  4           0  0  0
   -0.8001   -1.2055    2.0616 C   0  0  0  0  0  4           0  0  0
   -0.7748    1.2060    2.0696 C   0  0  0  0  0  4           0  0  0
    1.6091   -3.0111   -1.4368 C   0  0  0  0  0  4           0  0  0
   -4.9092   -2.6302    8.2328 C   0  0  0  0  0  4           0  0  0
   -2.3670   -0.9753    6.1993 C   0  0  0  0  0  4           0  0  0
    1.7008   -4.9810   -2.7425 C   0  0  0  0  0  4           0  0  0
    0.0000    0.0000    0.0000 C   0  0  0  0  0  4           0  0  0
    1.7702    2.5201    0.0095 C   0  0  0  0  0  4           0  0  0
    1.7882   -2.5191   -0.0232 C   0  0  0  0  0  4           0  0  0
   -5.1757   -1.5517    7.2220 C   0  0  0  0  0  4           0  0  0
   -2.8701   -0.4868    7.5388 C   0  0  0  0  0  4           0  0  0
    2.5114    3.4050   -0.9886 C   0  0  0  0  0  4           0  0  0
   -4.3798   -0.2907    7.5295 C   0  0  0  0  0  4           0  0  0
    2.3981    2.9479   -2.4436 C   0  0  0  0  0  4           0  0  0
    3.1580    3.8724   -3.3804 C   0  0  0  0  0  4           0  0  0
  1 10  1  0     0  0
  2 19  2  0     0  0
  3 20  2  0     0  0
  4 21  2  0     0  0
  5 19  1  0     0  0
  5 22  1  0     0  0
  6 20  1  0     0  0
  7 11  1  0     0  0
  7 12  1  0     0  0
  7 23  1  0     0  0
  8 10  1  0     0  0
  8 11  2  0     0  0
  9 13  1  0     0  0
  9 21  1  0     0  0
 10 12  2  0     0  0
 11 24  1  0     0  0
 12 25  1  0     0  0
 13 15  2  0     0  0
 13 16  1  0     0  0
 14 17  2  0     0  0
 14 18  1  0     0  0
 14 23  1  0     0  0
 15 17  1  0     0  0
 16 18  2  0     0  0
 19 25  1  0     0  0
 20 26  1  0     0  0
 21 27  1  0     0  0
 24 28  1  0     0  0
 26 29  1  0     0  0
 27 29  1  0     0  0
 28 30  1  0     0  0
 30 31  1  0     0  0
M  END
> <standard_type>
pIC50

> <# Confs.>
25

> <canonical_smiles>
CCCCC1=NC(Cl)=C(CC(OC)=O)N1CC2=CC=C(NC(CCCC(O)=O)=O)C=C2

> <standard_relation>
=

> <Publication_ID>
nan

> <predicted_activity_value>
5.0

> <actual_activity_value>
4.494850021680094

> <Compound>
22

> <standard_units>
nM

> hash
1317428753005583636

$$$$
21
XXILIB    08252103513D 0   0.00000     0.00000

 31 32  0     1  0            999 V2000
    5.0107   -1.4785    0.0029 Cl  0  0  0  0  0  1           0  0  0
    1.3129   -2.3205   -2.4027 O   0  0  0  0  0  2           0  0  0
    0.2469    1.6625    9.5582 O   0  0  0  0  0  2           0  0  0
   -2.2675   -2.1750    5.9491 O   0  0  0  0  0  2           0  0  0
    1.8330   -4.3580   -1.4605 O   0  0  0  0  0  2           0  0  0
    1.6381   -0.1350    9.5167 O   0  0  0  0  0  2           0  0  0
    1.4518   -0.0000   -0.0000 N   0  0  0  0  0  3           0  0  0
    3.5355    0.7714   -0.0002 N   0  0  0  0  0  3           0  0  0
   -2.0310    0.0541    5.3477 N   0  0  0  0  0  3           0  0  0
    3.5508   -0.5984   -0.0049 C   0  0  0  0  0  4           0  0  0
    2.2641    1.1177    0.0000 C   0  0  0  0  0  4           0  0  0
    2.2681   -1.1139   -0.0135 C   0  0  0  0  0  4           0  0  0
   -1.5316    0.0009    4.0319 C   0  0  0  0  0  4           0  0  0
   -0.5420    0.0000    1.3966 C   0  0  0  0  0  4           0  0  0
   -1.2943   -1.2075    3.3691 C   0  0  0  0  0  4           0  0  0
   -1.2676    1.2075    3.3765 C   0  0  0  0  0  4           0  0  0
   -0.8001   -1.2055    2.0616 C   0  0  0  0  0  4           0  0  0
   -0.7748    1.2060    2.0696 C   0  0  0  0  0  4           0  0  0
    1.6091   -3.0111   -1.4368 C   0  0  0  0  0  4           0  0  0
    0.4670    0.4975    9.2541 C   0  0  0  0  0  4           0  0  0
   -2.3670   -0.9753    6.1993 C   0  0  0  0  0  4           0  0  0
    1.7008   -4.9810   -2.7425 C   0  0  0  0  0  4           0  0  0
    0.0000    0.0000    0.0000 C   0  0  0  0  0  4           0  0  0
    1.7702    2.5201    0.0095 C   0  0  0  0  0  4           0  0  0
    1.7882   -2.5191   -0.0232 C   0  0  0  0  0  4           0  0  0
   -0.5195   -0.3864    8.5459 C   0  0  0  0  0  4           0  0  0
   -2.8701   -0.4868    7.5388 C   0  0  0  0  0  4           0  0  0
    2.5114    3.4050   -0.9886 C   0  0  0  0  0  4           0  0  0
   -1.8204    0.3498    8.2571 C   0  0  0  0  0  4           0  0  0
    2.3981    2.9479   -2.4436 C   0  0  0  0  0  4           0  0  0
    3.1580    3.8724   -3.3804 C   0  0  0  0  0  4           0  0  0
  1 10  1  0     0  0
  2 19  2  0     0  0
  3 20  2  0     0  0
  4 21  2  0     0  0
  5 19  1  0     0  0
  5 22  1  0     0  0
  6 20  1  0     0  0
  7 11  1  0     0  0
  7 12  1  0     0  0
  7 23  1  0     0  0
  8 10  1  0     0  0
  8 11  2  0     0  0
  9 13  1  0     0  0
  9 21  1  0     0  0
 10 12  2  0     0  0
 11 24  1  0     0  0
 12 25  1  0     0  0
 13 15  2  0     0  0
 13 16  1  0     0  0
 14 17  2  0     0  0
 14 18  1  0     0  0
 14 23  1  0     0  0
 15 17  1  0     0  0
 16 18  2  0     0  0
 19 25  1  0     0  0
 20 26  1  0     0  0
 21 27  1  0     0  0
 24 28  1  0     0  0
 26 29  1  0     0  0
 27 29  1  0     0  0
 28 30  1  0     0  0
 30 31  1  0     0  0
M  END
> <standard_type>
pIC50

> <# Confs.>
25

> <canonical_smiles>
CCCCC1=NC(Cl)=C(CC(OC)=O)N1CC2=CC=C(NC(CCCC(O)=O)=O)C=C2

> <standard_relation>
=

> <Publication_ID>
nan

> <predicted_activity_value>
5.0

> <actual_activity_value>
4.494850021680094

> <Compound>
22

> <standard_units>
nM

> hash
1317428753005583636

$$$$
21
XXILIB    08252103513D 0   0.00000     0.00000

 31 32  0     1  0            999 V2000
    5.0107    1.4785   -0.0029 Cl  0  0  0  0  0  1           0  0  0
    1.8462    2.4044   -2.4080 O   0  0  0  0  0  2           0  0  0
   -5.8922    0.5157    7.8530 O   0  0  0  0  0  2           0  0  0
   -2.2675   -2.1750    5.9491 O   0  0  0  0  0  2           0  0  0
    1.1813    4.3261   -1.3242 O   0  0  0  0  0  2           0  0  0
   -6.5400   -0.4214    5.8858 O   0  0  0  0  0  2           0  0  0
    1.4518    0.0000    0.0000 N   0  0  0  0  0  3           0  0  0
    3.5355   -0.7714    0.0002 N   0  0  0  0  0  3           0  0  0
   -2.0310    0.0541    5.3477 N   0  0  0  0  0  3           0  0  0
    3.5508    0.5984    0.0049 C   0  0  0  0  0  4           0  0  0
    2.2641   -1.1177    0.0000 C   0  0  0  0  0  4           0  0  0
    2.2681    1.1139    0.0135 C   0  0  0  0  0  4           0  0  0
   -1.5316    0.0009    4.0319 C   0  0  0  0  0  4           0  0  0
   -0.5420    0.0000    1.3966 C   0  0  0  0  0  4           0  0  0
   -1.2943   -1.2075    3.3691 C   0  0  0  0  0  4           0  0  0
   -1.2676    1.2075    3.3765 C   0  0  0  0  0  4           0  0  0
   -0.8001   -1.2055    2.0616 C   0  0  0  0  0  4           0  0  0
   -0.7748    1.2060    2.0696 C   0  0  0  0  0  4           0  0  0
    1.6228    3.0353   -1.3835 C   0  0  0  0  0  4           0  0  0
   -5.8711   -0.4214    7.0659 C   0  0  0  0  0  4           0  0  0
   -2.3670   -0.9753    6.1993 C   0  0  0  0  0  4           0  0  0
    0.9732    4.9636   -2.5890 C   0  0  0  0  0  4           0  0  0
    0.0000    0.0000    0.0000 C   0  0  0  0  0  4           0  0  0
    1.7702   -2.5201   -0.0095 C   0  0  0  0  0  4           0  0  0
    1.7882    2.5191    0.0232 C   0  0  0  0  0  4           0  0  0
   -5.1125   -1.6967    7.2987 C   0  0  0  0  0  4           0  0  0
   -2.8701   -0.4868    7.5388 C   0  0  0  0  0  4           0  0  0
    2.5239   -3.3959   -1.0062 C   0  0  0  0  0  4           0  0  0
   -3.8708   -1.4597    8.1470 C   0  0  0  0  0  4           0  0  0
    2.0514   -4.8497   -1.0528 C   0  0  0  0  0  4           0  0  0
    2.8433   -5.6623   -2.0640 C   0  0  0  0  0  4           0  0  0
  1 10  1  0     0  0
  2 19  2  0     0  0
  3 20  2  0     0  0
  4 21  2  0     0  0
  5 19  1  0     0  0
  5 22  1  0     0  0
  6 20  1  0     0  0
  7 11  1  0     0  0
  7 12  1  0     0  0
  7 23  1  0     0  0
  8 10  1  0     0  0
  8 11  2  0     0  0
  9 13  1  0     0  0
  9 21  1  0     0  0
 10 12  2  0     0  0
 11 24  1  0     0  0
 12 25  1  0     0  0
 13 15  2  0     0  0
 13 16  1  0     0  0
 14 17  2  0     0  0
 14 18  1  0     0  0
 14 23  1  0     0  0
 15 17  1  0     0  0
 16 18  2  0     0  0
 19 25  1  0     0  0
 20 26  1  0     0  0
 21 27  1  0     0  0
 24 28  1  0     0  0
 26 29  1  0     0  0
 27 29  1  0     0  0
 28 30  1  0     0  0
 30 31  1  0     0  0
M  END
> <standard_type>
pIC50

> <# Confs.>
25

> <canonical_smiles>
CCCCC1=NC(Cl)=C(CC(OC)=O)N1CC2=CC=C(NC(CCCC(O)=O)=O)C=C2

> <standard_relation>
=

> <Publication_ID>
nan

> <predicted_activity_value>
5.0

> <actual_activity_value>
4.494850021680094

> <Compound>
22

> <standard_units>
nM

> hash
1317428753005583636

$$$$
21
XXILIB    08252103513D 0   0.00000     0.00000

 31 32  0     1  0            999 V2000
    5.0107   -1.4785    0.0029 Cl  0  0  0  0  0  1           0  0  0
    1.8226   -2.3628   -2.4525 O   0  0  0  0  0  2           0  0  0
   -6.9474   -2.3341    8.7259 O   0  0  0  0  0  2           0  0  0
   -2.2675   -2.1750    5.9491 O   0  0  0  0  0  2           0  0  0
    1.1684   -4.3029   -1.3955 O   0  0  0  0  0  2           0  0  0
   -5.7994   -3.9523    7.6162 O   0  0  0  0  0  2           0  0  0
    1.4518   -0.0000   -0.0000 N   0  0  0  0  0  3           0  0  0
    3.5355    0.7714   -0.0002 N   0  0  0  0  0  3           0  0  0
   -2.0310    0.0541    5.3477 N   0  0  0  0  0  3           0  0  0
    3.5508   -0.5984   -0.0049 C   0  0  0  0  0  4           0  0  0
    2.2641    1.1177    0.0000 C   0  0  0  0  0  4           0  0  0
    2.2681   -1.1139   -0.0135 C   0  0  0  0  0  4           0  0  0
   -1.5316    0.0009    4.0319 C   0  0  0  0  0  4           0  0  0
   -0.5420    0.0000    1.3966 C   0  0  0  0  0  4           0  0  0
   -1.2943   -1.2075    3.3691 C   0  0  0  0  0  4           0  0  0
   -1.2676    1.2075    3.3765 C   0  0  0  0  0  4           0  0  0
   -0.8001   -1.2055    2.0616 C   0  0  0  0  0  4           0  0  0
   -0.7748    1.2060    2.0696 C   0  0  0  0  0  4           0  0  0
    1.6091   -3.0111   -1.4368 C   0  0  0  0  0  4           0  0  0
   -6.0528   -2.6644    7.9584 C   0  0  0  0  0  4           0  0  0
   -2.3670   -0.9753    6.1993 C   0  0  0  0  0  4           0  0  0
    0.9484   -4.9188   -2.6689 C   0  0  0  0  0  4           0  0  0
    0.0000    0.0000    0.0000 C   0  0  0  0  0  4           0  0  0
    1.7702    2.5201    0.0095 C   0  0  0  0  0  4           0  0  0
    1.7882   -2.5191   -0.0232 C   0  0  0  0  0  4           0  0  0
   -5.1125   -1.6967    7.2987 C   0  0  0  0  0  4           0  0  0
   -2.8701   -0.4868    7.5388 C   0  0  0  0  0  4           0  0  0
    2.5114    3.4050   -0.9886 C   0  0  0  0  0  4           0  0  0
   -3.8708   -1.4597    8.1470 C   0  0  0  0  0  4           0  0  0
    2.0385    4.8591   -1.0160 C   0  0  0  0  0  4           0  0  0
    2.8177    5.6809   -2.0296 C   0  0  0  0  0  4           0  0  0
  1 10  1  0     0  0
  2 19  2  0     0  0
  3 20  2  0     0  0
  4 21  2  0     0  0
  5 19  1  0     0  0
  5 22  1  0     0  0
  6 20  1  0     0  0
  7 11  1  0     0  0
  7 12  1  0     0  0
  7 23  1  0     0  0
  8 10  1  0     0  0
  8 11  2  0     0  0
  9 13  1  0     0  0
  9 21  1  0     0  0
 10 12  2  0     0  0
 11 24  1  0     0  0
 12 25  1  0     0  0
 13 15  2  0     0  0
 13 16  1  0     0  0
 14 17  2  0     0  0
 14 18  1  0     0  0
 14 23  1  0     0  0
 15 17  1  0     0  0
 16 18  2  0     0  0
 19 25  1  0     0  0
 20 26  1  0     0  0
 21 27  1  0     0  0
 24 28  1  0     0  0
 26 29  1  0     0  0
 27 29  1  0     0  0
 28 30  1  0     0  0
 30 31  1  0     0  0
M  END
> <standard_type>
pIC50

> <# Confs.>
25

> <canonical_smiles>
CCCCC1=NC(Cl)=C(CC(OC)=O)N1CC2=CC=C(NC(CCCC(O)=O)=O)C=C2

> <standard_relation>
=

> <Publication_ID>
nan

> <predicted_activity_value>
5.0

> <actual_activity_value>
4.494850021680094

> <Compound>
22

> <standard_units>
nM

> hash
1317428753005583636

$$$$
21
XXILIB    08252103513D 0   0.00000     0.00000

 31 32  0     1  0            999 V2000
    5.0107    1.4785   -0.0029 Cl  0  0  0  0  0  1           0  0  0
    1.3361    2.3614   -2.3638 O   0  0  0  0  0  2           0  0  0
   -6.9474   -2.3341    8.7259 O   0  0  0  0  0  2           0  0  0
   -2.2675   -2.1750    5.9491 O   0  0  0  0  0  2           0  0  0
    1.8465    4.3824   -1.3818 O   0  0  0  0  0  2           0  0  0
   -5.7994   -3.9523    7.6162 O   0  0  0  0  0  2           0  0  0
    1.4518    0.0000    0.0000 N   0  0  0  0  0  3           0  0  0
    3.5355   -0.7714    0.0002 N   0  0  0  0  0  3           0  0  0
   -2.0310    0.0541    5.3477 N   0  0  0  0  0  3           0  0  0
    3.5508    0.5984    0.0049 C   0  0  0  0  0  4           0  0  0
    2.2641   -1.1177    0.0000 C   0  0  0  0  0  4           0  0  0
    2.2681    1.1139    0.0135 C   0  0  0  0  0  4           0  0  0
   -1.5316    0.0009    4.0319 C   0  0  0  0  0  4           0  0  0
   -0.5420    0.0000    1.3966 C   0  0  0  0  0  4           0  0  0
   -1.2943   -1.2075    3.3691 C   0  0  0  0  0  4           0  0  0
   -1.2676    1.2075    3.3765 C   0  0  0  0  0  4           0  0  0
   -0.8001   -1.2055    2.0616 C   0  0  0  0  0  4           0  0  0
   -0.7748    1.2060    2.0696 C   0  0  0  0  0  4           0  0  0
    1.6228    3.0353   -1.3835 C   0  0  0  0  0  4           0  0  0
   -6.0528   -2.6644    7.9584 C   0  0  0  0  0  4           0  0  0
   -2.3670   -0.9753    6.1993 C   0  0  0  0  0  4           0  0  0
    1.7263    5.0273   -2.6541 C   0  0  0  0  0  4           0  0  0
    0.0000    0.0000    0.0000 C   0  0  0  0  0  4           0  0  0
    1.7702   -2.5201   -0.0095 C   0  0  0  0  0  4           0  0  0
    1.7882    2.5191    0.0232 C   0  0  0  0  0  4           0  0  0
   -5.1125   -1.6967    7.2987 C   0  0  0  0  0  4           0  0  0
   -2.8701   -0.4868    7.5388 C   0  0  0  0  0  4           0  0  0
    2.5239   -3.3959   -1.0062 C   0  0  0  0  0  4           0  0  0
   -3.8708   -1.4597    8.1470 C   0  0  0  0  0  4           0  0  0
    2.4288   -2.9255   -2.4583 C   0  0  0  0  0  4           0  0  0
    3.2004   -3.8416   -3.3938 C   0  0  0  0  0  4           0  0  0
  1 10  1  0     0  0
  2 19  2  0     0  0
  3 20  2  0     0  0
  4 21  2  0     0  0
  5 19  1  0     0  0
  5 22  1  0     0  0
  6 20  1  0     0  0
  7 11  1  0     0  0
  7 12  1  0     0  0
  7 23  1  0     0  0
  8 10  1  0     0  0
  8 11  2  0     0  0
  9 13  1  0     0  0
  9 21  1  0     0  0
 10 12  2  0     0  0
 11 24  1  0     0  0
 12 25  1  0     0  0
 13 15  2  0     0  0
 13 16  1  0     0  0
 14 17  2  0     0  0
 14 18  1  0     0  0
 14 23  1  0     0  0
 15 17  1  0     0  0
 16 18  2  0     0  0
 19 25  1  0     0  0
 20 26  1  0     0  0
 21 27  1  0     0  0
 24 28  1  0     0  0
 26 29  1  0     0  0
 27 29  1  0     0  0
 28 30  1  0     0  0
 30 31  1  0     0  0
M  END
> <standard_type>
pIC50

> <# Confs.>
25

> <canonical_smiles>
CCCCC1=NC(Cl)=C(CC(OC)=O)N1CC2=CC=C(NC(CCCC(O)=O)=O)C=C2

> <standard_relation>
=

> <Publication_ID>
nan

> <predicted_activity_value>
5.0

> <actual_activity_value>
4.494850021680094

> <Compound>
22

> <standard_units>
nM

> hash
1317428753005583636

$$$$
21
XXILIB    08252103513D 0   0.00000     0.00000

 31 32  0     1  0            999 V2000
    5.0107   -1.4785    0.0029 Cl  0  0  0  0  0  1           0  0  0
    1.8226   -2.3628   -2.4525 O   0  0  0  0  0  2           0  0  0
   -3.9882    2.3707    8.4449 O   0  0  0  0  0  2           0  0  0
   -2.2675   -2.1750    5.9491 O   0  0  0  0  0  2           0  0  0
    1.1684   -4.3029   -1.3955 O   0  0  0  0  0  2           0  0  0
   -4.3175    1.6918   10.5893 O   0  0  0  0  0  2           0  0  0
    1.4518   -0.0000   -0.0000 N   0  0  0  0  0  3           0  0  0
    3.5355    0.7714   -0.0002 N   0  0  0  0  0  3           0  0  0
   -2.0310    0.0541    5.3477 N   0  0  0  0  0  3           0  0  0
    3.5508   -0.5984   -0.0049 C   0  0  0  0  0  4           0  0  0
    2.2641    1.1177    0.0000 C   0  0  0  0  0  4           0  0  0
    2.2681   -1.1139   -0.0135 C   0  0  0  0  0  4           0  0  0
   -1.5316    0.0009    4.0319 C   0  0  0  0  0  4           0  0  0
   -0.5420    0.0000    1.3966 C   0  0  0  0  0  4           0  0  0
   -1.2943   -1.2075    3.3691 C   0  0  0  0  0  4           0  0  0
   -1.2676    1.2075    3.3765 C   0  0  0  0  0  4           0  0  0
   -0.8001   -1.2055    2.0616 C   0  0  0  0  0  4           0  0  0
   -0.7748    1.2060    2.0696 C   0  0  0  0  0  4           0  0  0
    1.6091   -3.0111   -1.4368 C   0  0  0  0  0  4           0  0  0
   -4.3754    1.5282    9.2440 C   0  0  0  0  0  4           0  0  0
   -2.3670   -0.9753    6.1993 C   0  0  0  0  0  4           0  0  0
    0.9484   -4.9188   -2.6689 C   0  0  0  0  0  4           0  0  0
    0.0000    0.0000    0.0000 C   0  0  0  0  0  4           0  0  0
    1.7702    2.5201    0.0095 C   0  0  0  0  0  4           0  0  0
    1.7882   -2.5191   -0.0232 C   0  0  0  0  0  4           0  0  0
   -4.9581    0.2014    8.8490 C   0  0  0  0  0  4           0  0  0
   -2.8701   -0.4868    7.5388 C   0  0  0  0  0  4           0  0  0
    2.5114    3.4050   -0.9886 C   0  0  0  0  0  4           0  0  0
   -4.3798   -0.2907    7.5295 C   0  0  0  0  0  4           0  0  0
    2.0385    4.8591   -1.0160 C   0  0  0  0  0  4           0  0  0
    2.8177    5.6809   -2.0296 C   0  0  0  0  0  4           0  0  0
  1 10  1  0     0  0
  2 19  2  0     0  0
  3 20  2  0     0  0
  4 21  2  0     0  0
  5 19  1  0     0  0
  5 22  1  0     0  0
  6 20  1  0     0  0
  7 11  1  0     0  0
  7 12  1  0     0  0
  7 23  1  0     0  0
  8 10  1  0     0  0
  8 11  2  0     0  0
  9 13  1  0     0  0
  9 21  1  0     0  0
 10 12  2  0     0  0
 11 24  1  0     0  0
 12 25  1  0     0  0
 13 15  2  0     0  0
 13 16  1  0     0  0
 14 17  2  0     0  0
 14 18  1  0     0  0
 14 23  1  0     0  0
 15 17  1  0     0  0
 16 18  2  0     0  0
 19 25  1  0     0  0
 20 26  1  0     0  0
 21 27  1  0     0  0
 24 28  1  0     0  0
 26 29  1  0     0  0
 27 29  1  0     0  0
 28 30  1  0     0  0
 30 31  1  0     0  0
M  END
> <standard_type>
pIC50

> <# Confs.>
25

> <canonical_smiles>
CCCCC1=NC(Cl)=C(CC(OC)=O)N1CC2=CC=C(NC(CCCC(O)=O)=O)C=C2

> <standard_relation>
=

> <Publication_ID>
nan

> <predicted_activity_value>
5.0

> <actual_activity_value>
4.494850021680094

> <Compound>
22

> <standard_units>
nM

> hash
1317428753005583636

$$$$
21
XXILIB    08252103513D 0   0.00000     0.00000

 31 32  0     1  0            999 V2000
    5.0107   -1.4785    0.0029 Cl  0  0  0  0  0  1           0  0  0
    1.8226   -2.3628   -2.4525 O   0  0  0  0  0  2           0  0  0
   -7.1500   -0.1887    7.4551 O   0  0  0  0  0  2           0  0  0
   -2.2675   -2.1750    5.9491 O   0  0  0  0  0  2           0  0  0
    1.1684   -4.3029   -1.3955 O   0  0  0  0  0  2           0  0  0
   -7.3850   -2.3959    6.9644 O   0  0  0  0  0  2           0  0  0
    1.4518   -0.0000   -0.0000 N   0  0  0  0  0  3           0  0  0
    3.5355    0.7714   -0.0002 N   0  0  0  0  0  3           0  0  0
   -2.0310    0.0541    5.3477 N   0  0  0  0  0  3           0  0  0
    3.5508   -0.5984   -0.0049 C   0  0  0  0  0  4           0  0  0
    2.2641    1.1177    0.0000 C   0  0  0  0  0  4           0  0  0
    2.2681   -1.1139   -0.0135 C   0  0  0  0  0  4           0  0  0
   -1.5316    0.0009    4.0319 C   0  0  0  0  0  4           0  0  0
   -0.5420    0.0000    1.3966 C   0  0  0  0  0  4           0  0  0
   -1.2943   -1.2075    3.3691 C   0  0  0  0  0  4           0  0  0
   -1.2676    1.2075    3.3765 C   0  0  0  0  0  4           0  0  0
   -0.8001   -1.2055    2.0616 C   0  0  0  0  0  4           0  0  0
   -0.7748    1.2060    2.0696 C   0  0  0  0  0  4           0  0  0
    1.6091   -3.0111   -1.4368 C   0  0  0  0  0  4           0  0  0
   -6.6537   -1.2847    7.2295 C   0  0  0  0  0  4           0  0  0
   -2.3670   -0.9753    6.1993 C   0  0  0  0  0  4           0  0  0
    0.9484   -4.9188   -2.6689 C   0  0  0  0  0  4           0  0  0
    0.0000    0.0000    0.0000 C   0  0  0  0  0  4           0  0  0
    1.7702    2.5201    0.0095 C   0  0  0  0  0  4           0  0  0
    1.7882   -2.5191   -0.0232 C   0  0  0  0  0  4           0  0  0
   -5.1757   -1.5517    7.2220 C   0  0  0  0  0  4           0  0  0
   -2.8701   -0.4868    7.5388 C   0  0  0  0  0  4           0  0  0
    2.5114    3.4050   -0.9886 C   0  0  0  0  0  4           0  0  0
   -4.3798   -0.2907    7.5295 C   0  0  0  0  0  4           0  0  0
    2.0385    4.8591   -1.0160 C   0  0  0  0  0  4           0  0  0
    2.8177    5.6809   -2.0296 C   0  0  0  0  0  4           0  0  0
  1 10  1  0     0  0
  2 19  2  0     0  0
  3 20  2  0     0  0
  4 21  2  0     0  0
  5 19  1  0     0  0
  5 22  1  0     0  0
  6 20  1  0     0  0
  7 11  1  0     0  0
  7 12  1  0     0  0
  7 23  1  0     0  0
  8 10  1  0     0  0
  8 11  2  0     0  0
  9 13  1  0     0  0
  9 21  1  0     0  0
 10 12  2  0     0  0
 11 24  1  0     0  0
 12 25  1  0     0  0
 13 15  2  0     0  0
 13 16  1  0     0  0
 14 17  2  0     0  0
 14 18  1  0     0  0
 14 23  1  0     0  0
 15 17  1  0     0  0
 16 18  2  0     0  0
 19 25  1  0     0  0
 20 26  1  0     0  0
 21 27  1  0     0  0
 24 28  1  0     0  0
 26 29  1  0     0  0
 27 29  1  0     0  0
 28 30  1  0     0  0
 30 31  1  0     0  0
M  END
> <standard_type>
pIC50

> <# Confs.>
25

> <canonical_smiles>
CCCCC1=NC(Cl)=C(CC(OC)=O)N1CC2=CC=C(NC(CCCC(O)=O)=O)C=C2

> <standard_relation>
=

> <Publication_ID>
nan

> <predicted_activity_value>
5.0

> <actual_activity_value>
4.494850021680094

> <Compound>
22

> <standard_units>
nM

> hash
1317428753005583636

$$$$
21
XXILIB    08252103513D 0   0.00000     0.00000

 31 32  0     1  0            999 V2000
    5.0107    1.4785   -0.0029 Cl  0  0  0  0  0  1           0  0  0
    1.3361    2.3614   -2.3638 O   0  0  0  0  0  2           0  0  0
   -4.7053    1.6953    5.9845 O   0  0  0  0  0  2           0  0  0
   -2.2675   -2.1750    5.9491 O   0  0  0  0  0  2           0  0  0
    1.8465    4.3824   -1.3818 O   0  0  0  0  0  2           0  0  0
   -6.2994    1.5136    7.5950 O   0  0  0  0  0  2           0  0  0
    1.4518    0.0000    0.0000 N   0  0  0  0  0  3           0  0  0
    3.5355   -0.7714    0.0002 N   0  0  0  0  0  3           0  0  0
   -2.0310    0.0541    5.3477 N   0  0  0  0  0  3           0  0  0
    3.5508    0.5984    0.0049 C   0  0  0  0  0  4           0  0  0
    2.2641   -1.1177    0.0000 C   0  0  0  0  0  4           0  0  0
    2.2681    1.1139    0.0135 C   0  0  0  0  0  4           0  0  0
   -1.5316    0.0009    4.0319 C   0  0  0  0  0  4           0  0  0
   -0.5420    0.0000    1.3966 C   0  0  0  0  0  4           0  0  0
   -1.2943   -1.2075    3.3691 C   0  0  0  0  0  4           0  0  0
   -1.2676    1.2075    3.3765 C   0  0  0  0  0  4           0  0  0
   -0.8001   -1.2055    2.0616 C   0  0  0  0  0  4           0  0  0
   -0.7748    1.2060    2.0696 C   0  0  0  0  0  4           0  0  0
    1.6228    3.0353   -1.3835 C   0  0  0  0  0  4           0  0  0
   -5.3904    1.0038    6.7266 C   0  0  0  0  0  4           0  0  0
   -2.3670   -0.9753    6.1993 C   0  0  0  0  0  4           0  0  0
    1.7263    5.0273   -2.6541 C   0  0  0  0  0  4           0  0  0
    0.0000    0.0000    0.0000 C   0  0  0  0  0  4           0  0  0
    1.7702   -2.5201   -0.0095 C   0  0  0  0  0  4           0  0  0
    1.7882    2.5191    0.0232 C   0  0  0  0  0  4           0  0  0
   -5.3156   -0.4952    6.7842 C   0  0  0  0  0  4           0  0  0
   -2.8701   -0.4868    7.5388 C   0  0  0  0  0  4           0  0  0
    2.5114   -3.4050    0.9886 C   0  0  0  0  0  4           0  0  0
   -4.2908   -0.9632    7.8082 C   0  0  0  0  0  4           0  0  0
    2.3981   -2.9479    2.4436 C   0  0  0  0  0  4           0  0  0
    3.1580   -3.8724    3.3804 C   0  0  0  0  0  4           0  0  0
  1 10  1  0     0  0
  2 19  2  0     0  0
  3 20  2  0     0  0
  4 21  2  0     0  0
  5 19  1  0     0  0
  5 22  1  0     0  0
  6 20  1  0     0  0
  7 11  1  0     0  0
  7 12  1  0     0  0
  7 23  1  0     0  0
  8 10  1  0     0  0
  8 11  2  0     0  0
  9 13  1  0     0  0
  9 21  1  0     0  0
 10 12  2  0     0  0
 11 24  1  0     0  0
 12 25  1  0     0  0
 13 15  2  0     0  0
 13 16  1  0     0  0
 14 17  2  0     0  0
 14 18  1  0     0  0
 14 23  1  0     0  0
 15 17  1  0     0  0
 16 18  2  0     0  0
 19 25  1  0     0  0
 20 26  1  0     0  0
 21 27  1  0     0  0
 24 28  1  0     0  0
 26 29  1  0     0  0
 27 29  1  0     0  0
 28 30  1  0     0  0
 30 31  1  0     0  0
M  END
> <standard_type>
pIC50

> <# Confs.>
25

> <canonical_smiles>
CCCCC1=NC(Cl)=C(CC(OC)=O)N1CC2=CC=C(NC(CCCC(O)=O)=O)C=C2

> <standard_relation>
=

> <Publication_ID>
nan

> <predicted_activity_value>
5.0

> <actual_activity_value>
4.494850021680094

> <Compound>
22

> <standard_units>
nM

> hash
1317428753005583636

$$$$
21
XXILIB    08252103513D 0   0.00000     0.00000

 31 32  0     1  0            999 V2000
    5.0107   -1.4785    0.0029 Cl  0  0  0  0  0  1           0  0  0
    1.8226   -2.3628   -2.4525 O   0  0  0  0  0  2           0  0  0
   -2.8429   -2.4369   10.0752 O   0  0  0  0  0  2           0  0  0
   -2.2675   -2.1750    5.9491 O   0  0  0  0  0  2           0  0  0
    1.1684   -4.3029   -1.3955 O   0  0  0  0  0  2           0  0  0
   -1.4370   -3.9192    9.0782 O   0  0  0  0  0  2           0  0  0
    1.4518   -0.0000   -0.0000 N   0  0  0  0  0  3           0  0  0
    3.5355    0.7714   -0.0002 N   0  0  0  0  0  3           0  0  0
   -2.0310    0.0541    5.3477 N   0  0  0  0  0  3           0  0  0
    3.5508   -0.5984   -0.0049 C   0  0  0  0  0  4           0  0  0
    2.2641    1.1177    0.0000 C   0  0  0  0  0  4           0  0  0
    2.2681   -1.1139   -0.0135 C   0  0  0  0  0  4           0  0  0
   -1.5316    0.0009    4.0319 C   0  0  0  0  0  4           0  0  0
   -0.5420    0.0000    1.3966 C   0  0  0  0  0  4           0  0  0
   -1.2943   -1.2075    3.3691 C   0  0  0  0  0  4           0  0  0
   -1.2676    1.2075    3.3765 C   0  0  0  0  0  4           0  0  0
   -0.8001   -1.2055    2.0616 C   0  0  0  0  0  4           0  0  0
   -0.7748    1.2060    2.0696 C   0  0  0  0  0  4           0  0  0
    1.6091   -3.0111   -1.4368 C   0  0  0  0  0  4           0  0  0
   -1.8519   -2.6671    9.3945 C   0  0  0  0  0  4           0  0  0
   -2.3670   -0.9753    6.1993 C   0  0  0  0  0  4           0  0  0
    0.9484   -4.9188   -2.6689 C   0  0  0  0  0  4           0  0  0
    0.0000    0.0000    0.0000 C   0  0  0  0  0  4           0  0  0
    1.7702    2.5201    0.0095 C   0  0  0  0  0  4           0  0  0
    1.7882   -2.5191   -0.0232 C   0  0  0  0  0  4           0  0  0
   -0.9589   -1.6025    8.8244 C   0  0  0  0  0  4           0  0  0
   -2.8701   -0.4868    7.5388 C   0  0  0  0  0  4           0  0  0
    2.5114    3.4050   -0.9886 C   0  0  0  0  0  4           0  0  0
   -1.7314   -0.3226    8.5358 C   0  0  0  0  0  4           0  0  0
    2.0385    4.8591   -1.0160 C   0  0  0  0  0  4           0  0  0
    2.8177    5.6809   -2.0296 C   0  0  0  0  0  4           0  0  0
  1 10  1  0     0  0
  2 19  2  0     0  0
  3 20  2  0     0  0
  4 21  2  0     0  0
  5 19  1  0     0  0
  5 22  1  0     0  0
  6 20  1  0     0  0
  7 11  1  0     0  0
  7 12  1  0     0  0
  7 23  1  0     0  0
  8 10  1  0     0  0
  8 11  2  0     0  0
  9 13  1  0     0  0
  9 21  1  0     0  0
 10 12  2  0     0  0
 11 24  1  0     0  0
 12 25  1  0     0  0
 13 15  2  0     0  0
 13 16  1  0     0  0
 14 17  2  0     0  0
 14 18  1  0     0  0
 14 23  1  0     0  0
 15 17  1  0     0  0
 16 18  2  0     0  0
 19 25  1  0     0  0
 20 26  1  0     0  0
 21 27  1  0     0  0
 24 28  1  0     0  0
 26 29  1  0     0  0
 27 29  1  0     0  0
 28 30  1  0     0  0
 30 31  1  0     0  0
M  END
> <standard_type>
pIC50

> <# Confs.>
25

> <canonical_smiles>
CCCCC1=NC(Cl)=C(CC(OC)=O)N1CC2=CC=C(NC(CCCC(O)=O)=O)C=C2

> <standard_relation>
=

> <Publication_ID>
nan

> <predicted_activity_value>
5.0

> <actual_activity_value>
4.494850021680094

> <Compound>
22

> <standard_units>
nM

> hash
1317428753005583636

$$$$
21
XXILIB    08252103513D 0   0.00000     0.00000

 31 32  0     1  0            999 V2000
    5.0107    1.4785   -0.0029 Cl  0  0  0  0  0  1           0  0  0
    1.3361    2.3614   -2.3638 O   0  0  0  0  0  2           0  0  0
   -3.9882    2.3707    8.4449 O   0  0  0  0  0  2           0  0  0
   -2.2675   -2.1750    5.9491 O   0  0  0  0  0  2           0  0  0
    1.8465    4.3824   -1.3818 O   0  0  0  0  0  2           0  0  0
   -4.3175    1.6918   10.5893 O   0  0  0  0  0  2           0  0  0
    1.4518    0.0000    0.0000 N   0  0  0  0  0  3           0  0  0
    3.5355   -0.7714    0.0002 N   0  0  0  0  0  3           0  0  0
   -2.0310    0.0541    5.3477 N   0  0  0  0  0  3           0  0  0
    3.5508    0.5984    0.0049 C   0  0  0  0  0  4           0  0  0
    2.2641   -1.1177    0.0000 C   0  0  0  0  0  4           0  0  0
    2.2681    1.1139    0.0135 C   0  0  0  0  0  4           0  0  0
   -1.5316    0.0009    4.0319 C   0  0  0  0  0  4           0  0  0
   -0.5420    0.0000    1.3966 C   0  0  0  0  0  4           0  0  0
   -1.2943   -1.2075    3.3691 C   0  0  0  0  0  4           0  0  0
   -1.2676    1.2075    3.3765 C   0  0  0  0  0  4           0  0  0
   -0.8001   -1.2055    2.0616 C   0  0  0  0  0  4           0  0  0
   -0.7748    1.2060    2.0696 C   0  0  0  0  0  4           0  0  0
    1.6228    3.0353   -1.3835 C   0  0  0  0  0  4           0  0  0
   -4.3754    1.5282    9.2440 C   0  0  0  0  0  4           0  0  0
   -2.3670   -0.9753    6.1993 C   0  0  0  0  0  4           0  0  0
    1.7263    5.0273   -2.6541 C   0  0  0  0  0  4           0  0  0
    0.0000    0.0000    0.0000 C   0  0  0  0  0  4           0  0  0
    1.7702   -2.5201   -0.0095 C   0  0  0  0  0  4           0  0  0
    1.7882    2.5191    0.0232 C   0  0  0  0  0  4           0  0  0
   -4.9581    0.2014    8.8490 C   0  0  0  0  0  4           0  0  0
   -2.8701   -0.4868    7.5388 C   0  0  0  0  0  4           0  0  0
    2.5239   -3.3959   -1.0062 C   0  0  0  0  0  4           0  0  0
   -4.3798   -0.2907    7.5295 C   0  0  0  0  0  4           0  0  0
    2.4288   -2.9255   -2.4583 C   0  0  0  0  0  4           0  0  0
    3.2004   -3.8416   -3.3938 C   0  0  0  0  0  4           0  0  0
  1 10  1  0     0  0
  2 19  2  0     0  0
  3 20  2  0     0  0
  4 21  2  0     0  0
  5 19  1  0     0  0
  5 22  1  0     0  0
  6 20  1  0     0  0
  7 11  1  0     0  0
  7 12  1  0     0  0
  7 23  1  0     0  0
  8 10  1  0     0  0
  8 11  2  0     0  0
  9 13  1  0     0  0
  9 21  1  0     0  0
 10 12  2  0     0  0
 11 24  1  0     0  0
 12 25  1  0     0  0
 13 15  2  0     0  0
 13 16  1  0     0  0
 14 17  2  0     0  0
 14 18  1  0     0  0
 14 23  1  0     0  0
 15 17  1  0     0  0
 16 18  2  0     0  0
 19 25  1  0     0  0
 20 26  1  0     0  0
 21 27  1  0     0  0
 24 28  1  0     0  0
 26 29  1  0     0  0
 27 29  1  0     0  0
 28 30  1  0     0  0
 30 31  1  0     0  0
M  END
> <standard_type>
pIC50

> <# Confs.>
25

> <canonical_smiles>
CCCCC1=NC(Cl)=C(CC(OC)=O)N1CC2=CC=C(NC(CCCC(O)=O)=O)C=C2

> <standard_relation>
=

> <Publication_ID>
nan

> <predicted_activity_value>
5.0

> <actual_activity_value>
4.494850021680094

> <Compound>
22

> <standard_units>
nM

> hash
1317428753005583636

$$$$
4
XXILIB    08252103513D 0   0.00000     0.00000

 34 36  0     1  0            999 V2000
    5.0279   -1.4577    0.0746 Cl  0  0  0  0  0  1           0  0  0
   -2.1472   -1.5546   11.0239 Cl  0  0  0  0  0  1           0  0  0
   -5.1407    1.5652    6.5010 Cl  0  0  0  0  0  1           0  0  0
   -0.4952   -1.9691    8.3986 O   0  0  0  0  0  2           0  0  0
   -3.7638   -1.4981    5.3807 O   0  0  0  0  0  2           0  0  0
    1.5628   -2.8794   -1.3632 O   0  0  0  0  0  2           0  0  0
   -2.1429   -3.0876    7.3162 O   0  0  0  0  0  2           0  0  0
    1.4530   -0.0000   -0.0000 N   0  0  0  0  0  3           0  0  0
    3.5346    0.7633    0.0226 N   0  0  0  0  0  3           0  0  0
   -2.0717    0.0855    5.3315 N   0  0  0  0  0  3           0  0  0
    3.5489   -0.6082    0.0290 C   0  0  0  0  0  4           0  0  0
   -2.9439   -0.7376    9.7248 C   0  0  0  0  0  4           0  0  0
   -4.2676    0.6742    7.6979 C   0  0  0  0  0  4           0  0  0
    2.2664    1.1151    0.0000 C   0  0  0  0  0  4           0  0  0
    2.2632   -1.1242    0.0006 C   0  0  0  0  0  4           0  0  0
   -1.5848    0.0311    4.0103 C   0  0  0  0  0  4           0  0  0
   -2.6673   -1.0237    8.3804 C   0  0  0  0  0  4           0  0  0
   -3.3412   -0.3240    7.3609 C   0  0  0  0  0  4           0  0  0
   -0.5412    0.0000    1.3968 C   0  0  0  0  0  4           0  0  0
   -3.8750    0.2513   10.0495 C   0  0  0  0  0  4           0  0  0
   -4.5313    0.9567    9.0403 C   0  0  0  0  0  4           0  0  0
   -2.1115   -0.8415    3.0525 C   0  0  0  0  0  4           0  0  0
   -0.5384    0.8889    3.6576 C   0  0  0  0  0  4           0  0  0
   -1.5940   -0.8526    1.7540 C   0  0  0  0  0  4           0  0  0
   -0.0218    0.8739    2.3600 C   0  0  0  0  0  4           0  0  0
   -1.6625   -2.0537    8.0456 C   0  0  0  0  0  4           0  0  0
   -3.0836   -0.6375    5.9350 C   0  0  0  0  0  4           0  0  0
    1.7131   -2.4985   -0.0017 C   0  0  0  0  0  4           0  0  0
    1.0366   -4.1944   -1.4829 C   0  0  0  0  0  4           0  0  0
    0.0000    0.0000    0.0000 C   0  0  0  0  0  4           0  0  0
    1.7824    2.5210   -0.0190 C   0  0  0  0  0  4           0  0  0
    2.5491    3.3857   -1.0151 C   0  0  0  0  0  4           0  0  0
    2.4628    2.9124   -2.4664 C   0  0  0  0  0  4           0  0  0
    3.2393    3.7992   -3.4285 C   0  0  0  0  0  4           0  0  0
  1 11  1  0     0  0
  2 12  1  0     0  0
  3 13  1  0     0  0
  4 26  2  0     0  0
  5 27  2  0     0  0
  6 28  1  0     0  0
  6 29  1  0     0  0
  7 26  1  0     0  0
  8 14  1  0     0  0
  8 15  1  0     0  0
  8 30  1  0     0  0
  9 11  1  0     0  0
  9 14  2  0     0  0
 10 16  1  0     0  0
 10 27  1  0     0  0
 11 15  2  0     0  0
 12 17  2  0     0  0
 12 20  1  0     0  0
 13 18  2  0     0  0
 13 21  1  0     0  0
 14 31  1  0     0  0
 15 28  1  0     0  0
 16 22  2  0     0  0
 16 23  1  0     0  0
 17 18  1  0     0  0
 17 26  1  0     0  0
 18 27  1  0     0  0
 19 24  2  0     0  0
 19 25  1  0     0  0
 19 30  1  0     0  0
 20 21  2  0     0  0
 22 24  1  0     0  0
 23 25  2  0     0  0
 31 32  1  0     0  0
 32 33  1  0     0  0
 33 34  1  0     0  0
M  END
> <standard_type>
pIC50

> <# Confs.>
25

> <canonical_smiles>
ClC(N=C1CCCC)=C(COC)N1CC2=CC=C(NC(C3=C(Cl)C=CC(Cl)=C3C(O)=O)=O)C=C2

> <standard_relation>
=

> <Publication_ID>
nan

> <predicted_activity_value>
6.698970004336019

> <actual_activity_value>
7.376750709602099

> <Compound>
5

> <standard_units>
nM

> hash
7676056760595389010

$$$$
4
XXILIB    08252103513D 0   0.00000     0.00000

 34 36  0     1  0            999 V2000
    5.0279   -1.4577    0.0746 Cl  0  0  0  0  0  1           0  0  0
   -5.5970    2.1991    9.5752 Cl  0  0  0  0  0  1           0  0  0
   -1.5018   -2.2617    8.0000 Cl  0  0  0  0  0  1           0  0  0
   -4.9482    2.6191    6.5441 O   0  0  0  0  0  2           0  0  0
   -3.7638   -1.4981    5.3807 O   0  0  0  0  0  2           0  0  0
    1.5628   -2.8794   -1.3632 O   0  0  0  0  0  2           0  0  0
   -5.7966    0.6194    5.8972 O   0  0  0  0  0  2           0  0  0
    1.4530   -0.0000   -0.0000 N   0  0  0  0  0  3           0  0  0
    3.5346    0.7633    0.0226 N   0  0  0  0  0  3           0  0  0
   -2.0717    0.0855    5.3315 N   0  0  0  0  0  3           0  0  0
    3.5489   -0.6082    0.0290 C   0  0  0  0  0  4           0  0  0
   -4.4743    0.9853    9.0694 C   0  0  0  0  0  4           0  0  0
   -2.6568   -1.0276    8.3632 C   0  0  0  0  0  4           0  0  0
    2.2664    1.1151    0.0000 C   0  0  0  0  0  4           0  0  0
    2.2632   -1.1242    0.0006 C   0  0  0  0  0  4           0  0  0
   -1.5848    0.0311    4.0103 C   0  0  0  0  0  4           0  0  0
   -4.2638    0.6784    7.7176 C   0  0  0  0  0  4           0  0  0
   -3.3412   -0.3240    7.3609 C   0  0  0  0  0  4           0  0  0
   -0.5412    0.0000    1.3968 C   0  0  0  0  0  4           0  0  0
   -3.7806    0.2854   10.0590 C   0  0  0  0  0  4           0  0  0
   -2.8785   -0.7193    9.7075 C   0  0  0  0  0  4           0  0  0
   -2.1115   -0.8415    3.0525 C   0  0  0  0  0  4           0  0  0
   -0.5384    0.8889    3.6576 C   0  0  0  0  0  4           0  0  0
   -1.5940   -0.8526    1.7540 C   0  0  0  0  0  4           0  0  0
   -0.0218    0.8739    2.3600 C   0  0  0  0  0  4           0  0  0
   -5.0202    1.4062    6.6781 C   0  0  0  0  0  4           0  0  0
   -3.0836   -0.6375    5.9350 C   0  0  0  0  0  4           0  0  0
    1.7131   -2.4985   -0.0017 C   0  0  0  0  0  4           0  0  0
    1.0366   -4.1944   -1.4829 C   0  0  0  0  0  4           0  0  0
    0.0000    0.0000    0.0000 C   0  0  0  0  0  4           0  0  0
    1.7824    2.5210   -0.0190 C   0  0  0  0  0  4           0  0  0
    2.5491    3.3857   -1.0151 C   0  0  0  0  0  4           0  0  0
    2.4628    2.9124   -2.4664 C   0  0  0  0  0  4           0  0  0
    3.2393    3.7992   -3.4285 C   0  0  0  0  0  4           0  0  0
  1 11  1  0     0  0
  2 12  1  0     0  0
  3 13  1  0     0  0
  4 26  2  0     0  0
  5 27  2  0     0  0
  6 28  1  0     0  0
  6 29  1  0     0  0
  7 26  1  0     0  0
  8 14  1  0     0  0
  8 15  1  0     0  0
  8 30  1  0     0  0
  9 11  1  0     0  0
  9 14  2  0     0  0
 10 16  1  0     0  0
 10 27  1  0     0  0
 11 15  2  0     0  0
 12 17  2  0     0  0
 12 20  1  0     0  0
 13 18  2  0     0  0
 13 21  1  0     0  0
 14 31  1  0     0  0
 15 28  1  0     0  0
 16 22  2  0     0  0
 16 23  1  0     0  0
 17 18  1  0     0  0
 17 26  1  0     0  0
 18 27  1  0     0  0
 19 24  2  0     0  0
 19 25  1  0     0  0
 19 30  1  0     0  0
 20 21  2  0     0  0
 22 24  1  0     0  0
 23 25  2  0     0  0
 31 32  1  0     0  0
 32 33  1  0     0  0
 33 34  1  0     0  0
M  END
> <standard_type>
pIC50

> <# Confs.>
25

> <canonical_smiles>
ClC(N=C1CCCC)=C(COC)N1CC2=CC=C(NC(C3=C(Cl)C=CC(Cl)=C3C(O)=O)=O)C=C2

> <standard_relation>
=

> <Publication_ID>
nan

> <predicted_activity_value>
6.698970004336019

> <actual_activity_value>
7.376750709602099

> <Compound>
5

> <standard_units>
nM

> hash
7676056760595389010

$$$$
4
XXILIB    08252103513D 0   0.00000     0.00000

 34 36  0     1  0            999 V2000
    5.0279   -1.4577    0.0746 Cl  0  0  0  0  0  1           0  0  0
   -2.1472   -1.5546   11.0239 Cl  0  0  0  0  0  1           0  0  0
   -5.1407    1.5652    6.5010 Cl  0  0  0  0  0  1           0  0  0
   -0.4952   -1.9691    8.3986 O   0  0  0  0  0  2           0  0  0
   -3.7638   -1.4981    5.3807 O   0  0  0  0  0  2           0  0  0
    1.5628   -2.8794   -1.3632 O   0  0  0  0  0  2           0  0  0
   -2.1429   -3.0876    7.3162 O   0  0  0  0  0  2           0  0  0
    1.4530   -0.0000   -0.0000 N   0  0  0  0  0  3           0  0  0
    3.5346    0.7633    0.0226 N   0  0  0  0  0  3           0  0  0
   -2.0717    0.0855    5.3315 N   0  0  0  0  0  3           0  0  0
    3.5489   -0.6082    0.0290 C   0  0  0  0  0  4           0  0  0
   -2.9439   -0.7376    9.7248 C   0  0  0  0  0  4           0  0  0
   -4.2676    0.6742    7.6979 C   0  0  0  0  0  4           0  0  0
    2.2664    1.1151    0.0000 C   0  0  0  0  0  4           0  0  0
    2.2632   -1.1242    0.0006 C   0  0  0  0  0  4           0  0  0
   -1.5848    0.0311    4.0103 C   0  0  0  0  0  4           0  0  0
   -2.6673   -1.0237    8.3804 C   0  0  0  0  0  4           0  0  0
   -3.3412   -0.3240    7.3609 C   0  0  0  0  0  4           0  0  0
   -0.5412    0.0000    1.3968 C   0  0  0  0  0  4           0  0  0
   -3.8750    0.2513   10.0495 C   0  0  0  0  0  4           0  0  0
   -4.5313    0.9567    9.0403 C   0  0  0  0  0  4           0  0  0
   -2.1115   -0.8415    3.0525 C   0  0  0  0  0  4           0  0  0
   -0.5384    0.8889    3.6576 C   0  0  0  0  0  4           0  0  0
   -1.5940   -0.8526    1.7540 C   0  0  0  0  0  4           0  0  0
   -0.0218    0.8739    2.3600 C   0  0  0  0  0  4           0  0  0
   -1.6625   -2.0537    8.0456 C   0  0  0  0  0  4           0  0  0
   -3.0836   -0.6375    5.9350 C   0  0  0  0  0  4           0  0  0
    1.7131   -2.4985   -0.0017 C   0  0  0  0  0  4           0  0  0
    1.0366   -4.1944   -1.4829 C   0  0  0  0  0  4           0  0  0
    0.0000    0.0000    0.0000 C   0  0  0  0  0  4           0  0  0
    1.7824    2.5210   -0.0190 C   0  0  0  0  0  4           0  0  0
    2.5491    3.3857   -1.0151 C   0  0  0  0  0  4           0  0  0
    2.0916    4.8434   -1.0757 C   0  0  0  0  0  4           0  0  0
    2.8791    5.6728   -2.0792 C   0  0  0  0  0  4           0  0  0
  1 11  1  0     0  0
  2 12  1  0     0  0
  3 13  1  0     0  0
  4 26  2  0     0  0
  5 27  2  0     0  0
  6 28  1  0     0  0
  6 29  1  0     0  0
  7 26  1  0     0  0
  8 14  1  0     0  0
  8 15  1  0     0  0
  8 30  1  0     0  0
  9 11  1  0     0  0
  9 14  2  0     0  0
 10 16  1  0     0  0
 10 27  1  0     0  0
 11 15  2  0     0  0
 12 17  2  0     0  0
 12 20  1  0     0  0
 13 18  2  0     0  0
 13 21  1  0     0  0
 14 31  1  0     0  0
 15 28  1  0     0  0
 16 22  2  0     0  0
 16 23  1  0     0  0
 17 18  1  0     0  0
 17 26  1  0     0  0
 18 27  1  0     0  0
 19 24  2  0     0  0
 19 25  1  0     0  0
 19 30  1  0     0  0
 20 21  2  0     0  0
 22 24  1  0     0  0
 23 25  2  0     0  0
 31 32  1  0     0  0
 32 33  1  0     0  0
 33 34  1  0     0  0
M  END
> <standard_type>
pIC50

> <# Confs.>
25

> <canonical_smiles>
ClC(N=C1CCCC)=C(COC)N1CC2=CC=C(NC(C3=C(Cl)C=CC(Cl)=C3C(O)=O)=O)C=C2

> <standard_relation>
=

> <Publication_ID>
nan

> <predicted_activity_value>
6.698970004336019

> <actual_activity_value>
7.376750709602099

> <Compound>
5

> <standard_units>
nM

> hash
7676056760595389010

$$$$
4
XXILIB    08252103513D 0   0.00000     0.00000

 34 36  0     1  0            999 V2000
    5.0279   -1.4577    0.0746 Cl  0  0  0  0  0  1           0  0  0
   -5.5970    2.1991    9.5752 Cl  0  0  0  0  0  1           0  0  0
   -1.5018   -2.2617    8.0000 Cl  0  0  0  0  0  1           0  0  0
   -4.9482    2.6191    6.5441 O   0  0  0  0  0  2           0  0  0
   -3.7638   -1.4981    5.3807 O   0  0  0  0  0  2           0  0  0
    1.5628   -2.8794   -1.3632 O   0  0  0  0  0  2           0  0  0
   -5.7966    0.6194    5.8972 O   0  0  0  0  0  2           0  0  0
    1.4530   -0.0000   -0.0000 N   0  0  0  0  0  3           0  0  0
    3.5346    0.7633    0.0226 N   0  0  0  0  0  3           0  0  0
   -2.0717    0.0855    5.3315 N   0  0  0  0  0  3           0  0  0
    3.5489   -0.6082    0.0290 C   0  0  0  0  0  4           0  0  0
   -4.4743    0.9853    9.0694 C   0  0  0  0  0  4           0  0  0
   -2.6568   -1.0276    8.3632 C   0  0  0  0  0  4           0  0  0
    2.2664    1.1151    0.0000 C   0  0  0  0  0  4           0  0  0
    2.2632   -1.1242    0.0006 C   0  0  0  0  0  4           0  0  0
   -1.5848    0.0311    4.0103 C   0  0  0  0  0  4           0  0  0
   -4.2638    0.6784    7.7176 C   0  0  0  0  0  4           0  0  0
   -3.3412   -0.3240    7.3609 C   0  0  0  0  0  4           0  0  0
   -0.5412    0.0000    1.3968 C   0  0  0  0  0  4           0  0  0
   -3.7806    0.2854   10.0590 C   0  0  0  0  0  4           0  0  0
   -2.8785   -0.7193    9.7075 C   0  0  0  0  0  4           0  0  0
   -2.1115   -0.8415    3.0525 C   0  0  0  0  0  4           0  0  0
   -0.5384    0.8889    3.6576 C   0  0  0  0  0  4           0  0  0
   -1.5940   -0.8526    1.7540 C   0  0  0  0  0  4           0  0  0
   -0.0218    0.8739    2.3600 C   0  0  0  0  0  4           0  0  0
   -5.0202    1.4062    6.6781 C   0  0  0  0  0  4           0  0  0
   -3.0836   -0.6375    5.9350 C   0  0  0  0  0  4           0  0  0
    1.7131   -2.4985   -0.0017 C   0  0  0  0  0  4           0  0  0
    1.0366   -4.1944   -1.4829 C   0  0  0  0  0  4           0  0  0
    0.0000    0.0000    0.0000 C   0  0  0  0  0  4           0  0  0
    1.7824    2.5210   -0.0190 C   0  0  0  0  0  4           0  0  0
    2.5491    3.3857   -1.0151 C   0  0  0  0  0  4           0  0  0
    2.0916    4.8434   -1.0757 C   0  0  0  0  0  4           0  0  0
    2.8791    5.6728   -2.0792 C   0  0  0  0  0  4           0  0  0
  1 11  1  0     0  0
  2 12  1  0     0  0
  3 13  1  0     0  0
  4 26  2  0     0  0
  5 27  2  0     0  0
  6 28  1  0     0  0
  6 29  1  0     0  0
  7 26  1  0     0  0
  8 14  1  0     0  0
  8 15  1  0     0  0
  8 30  1  0     0  0
  9 11  1  0     0  0
  9 14  2  0     0  0
 10 16  1  0     0  0
 10 27  1  0     0  0
 11 15  2  0     0  0
 12 17  2  0     0  0
 12 20  1  0     0  0
 13 18  2  0     0  0
 13 21  1  0     0  0
 14 31  1  0     0  0
 15 28  1  0     0  0
 16 22  2  0     0  0
 16 23  1  0     0  0
 17 18  1  0     0  0
 17 26  1  0     0  0
 18 27  1  0     0  0
 19 24  2  0     0  0
 19 25  1  0     0  0
 19 30  1  0     0  0
 20 21  2  0     0  0
 22 24  1  0     0  0
 23 25  2  0     0  0
 31 32  1  0     0  0
 32 33  1  0     0  0
 33 34  1  0     0  0
M  END
> <standard_type>
pIC50

> <# Confs.>
25

> <canonical_smiles>
ClC(N=C1CCCC)=C(COC)N1CC2=CC=C(NC(C3=C(Cl)C=CC(Cl)=C3C(O)=O)=O)C=C2

> <standard_relation>
=

> <Publication_ID>
nan

> <predicted_activity_value>
6.698970004336019

> <actual_activity_value>
7.376750709602099

> <Compound>
5

> <standard_units>
nM

> hash
7676056760595389010

$$$$
4
XXILIB    08252103513D 0   0.00000     0.00000

 34 36  0     1  0            999 V2000
    5.0279   -1.4577    0.0746 Cl  0  0  0  0  0  1           0  0  0
   -2.1472   -1.5546   11.0239 Cl  0  0  0  0  0  1           0  0  0
   -5.1407    1.5652    6.5010 Cl  0  0  0  0  0  1           0  0  0
   -0.4952   -1.9691    8.3986 O   0  0  0  0  0  2           0  0  0
   -3.7638   -1.4981    5.3807 O   0  0  0  0  0  2           0  0  0
    1.5628   -2.8794   -1.3632 O   0  0  0  0  0  2           0  0  0
   -2.1429   -3.0876    7.3162 O   0  0  0  0  0  2           0  0  0
    1.4530   -0.0000   -0.0000 N   0  0  0  0  0  3           0  0  0
    3.5346    0.7633    0.0226 N   0  0  0  0  0  3           0  0  0
   -2.0717    0.0855    5.3315 N   0  0  0  0  0  3           0  0  0
    3.5489   -0.6082    0.0290 C   0  0  0  0  0  4           0  0  0
   -2.9439   -0.7376    9.7248 C   0  0  0  0  0  4           0  0  0
   -4.2676    0.6742    7.6979 C   0  0  0  0  0  4           0  0  0
    2.2664    1.1151    0.0000 C   0  0  0  0  0  4           0  0  0
    2.2632   -1.1242    0.0006 C   0  0  0  0  0  4           0  0  0
   -1.5848    0.0311    4.0103 C   0  0  0  0  0  4           0  0  0
   -2.6673   -1.0237    8.3804 C   0  0  0  0  0  4           0  0  0
   -3.3412   -0.3240    7.3609 C   0  0  0  0  0  4           0  0  0
   -0.5412    0.0000    1.3968 C   0  0  0  0  0  4           0  0  0
   -3.8750    0.2513   10.0495 C   0  0  0  0  0  4           0  0  0
   -4.5313    0.9567    9.0403 C   0  0  0  0  0  4           0  0  0
   -2.1115   -0.8415    3.0525 C   0  0  0  0  0  4           0  0  0
   -0.5384    0.8889    3.6576 C   0  0  0  0  0  4           0  0  0
   -1.5940   -0.8526    1.7540 C   0  0  0  0  0  4           0  0  0
   -0.0218    0.8739    2.3600 C   0  0  0  0  0  4           0  0  0
   -1.6625   -2.0537    8.0456 C   0  0  0  0  0  4           0  0  0
   -3.0836   -0.6375    5.9350 C   0  0  0  0  0  4           0  0  0
    1.7131   -2.4985   -0.0017 C   0  0  0  0  0  4           0  0  0
    1.0366   -4.1944   -1.4829 C   0  0  0  0  0  4           0  0  0
    0.0000    0.0000    0.0000 C   0  0  0  0  0  4           0  0  0
    1.7824    2.5210   -0.0190 C   0  0  0  0  0  4           0  0  0
    2.5241    3.4040    0.9801 C   0  0  0  0  0  4           0  0  0
    2.0655    4.8625    1.0025 C   0  0  0  0  0  4           0  0  0
    2.8277    5.7103    2.0101 C   0  0  0  0  0  4           0  0  0
  1 11  1  0     0  0
  2 12  1  0     0  0
  3 13  1  0     0  0
  4 26  2  0     0  0
  5 27  2  0     0  0
  6 28  1  0     0  0
  6 29  1  0     0  0
  7 26  1  0     0  0
  8 14  1  0     0  0
  8 15  1  0     0  0
  8 30  1  0     0  0
  9 11  1  0     0  0
  9 14  2  0     0  0
 10 16  1  0     0  0
 10 27  1  0     0  0
 11 15  2  0     0  0
 12 17  2  0     0  0
 12 20  1  0     0  0
 13 18  2  0     0  0
 13 21  1  0     0  0
 14 31  1  0     0  0
 15 28  1  0     0  0
 16 22  2  0     0  0
 16 23  1  0     0  0
 17 18  1  0     0  0
 17 26  1  0     0  0
 18 27  1  0     0  0
 19 24  2  0     0  0
 19 25  1  0     0  0
 19 30  1  0     0  0
 20 21  2  0     0  0
 22 24  1  0     0  0
 23 25  2  0     0  0
 31 32  1  0     0  0
 32 33  1  0     0  0
 33 34  1  0     0  0
M  END
> <standard_type>
pIC50

> <# Confs.>
25

> <canonical_smiles>
ClC(N=C1CCCC)=C(COC)N1CC2=CC=C(NC(C3=C(Cl)C=CC(Cl)=C3C(O)=O)=O)C=C2

> <standard_relation>
=

> <Publication_ID>
nan

> <predicted_activity_value>
6.698970004336019

> <actual_activity_value>
7.376750709602099

> <Compound>
5

> <standard_units>
nM

> hash
7676056760595389010

$$$$
4
XXILIB    08252103513D 0   0.00000     0.00000

 34 36  0     1  0            999 V2000
    5.0279   -1.4577    0.0746 Cl  0  0  0  0  0  1           0  0  0
   -5.5970    2.1991    9.5752 Cl  0  0  0  0  0  1           0  0  0
   -1.5018   -2.2617    8.0000 Cl  0  0  0  0  0  1           0  0  0
   -4.9482    2.6191    6.5441 O   0  0  0  0  0  2           0  0  0
   -3.7638   -1.4981    5.3807 O   0  0  0  0  0  2           0  0  0
    1.5628   -2.8794   -1.3632 O   0  0  0  0  0  2           0  0  0
   -5.7966    0.6194    5.8972 O   0  0  0  0  0  2           0  0  0
    1.4530   -0.0000   -0.0000 N   0  0  0  0  0  3           0  0  0
    3.5346    0.7633    0.0226 N   0  0  0  0  0  3           0  0  0
   -2.0717    0.0855    5.3315 N   0  0  0  0  0  3           0  0  0
    3.5489   -0.6082    0.0290 C   0  0  0  0  0  4           0  0  0
   -4.4743    0.9853    9.0694 C   0  0  0  0  0  4           0  0  0
   -2.6568   -1.0276    8.3632 C   0  0  0  0  0  4           0  0  0
    2.2664    1.1151    0.0000 C   0  0  0  0  0  4           0  0  0
    2.2632   -1.1242    0.0006 C   0  0  0  0  0  4           0  0  0
   -1.5848    0.0311    4.0103 C   0  0  0  0  0  4           0  0  0
   -4.2638    0.6784    7.7176 C   0  0  0  0  0  4           0  0  0
   -3.3412   -0.3240    7.3609 C   0  0  0  0  0  4           0  0  0
   -0.5412    0.0000    1.3968 C   0  0  0  0  0  4           0  0  0
   -3.7806    0.2854   10.0590 C   0  0  0  0  0  4           0  0  0
   -2.8785   -0.7193    9.7075 C   0  0  0  0  0  4           0  0  0
   -2.1115   -0.8415    3.0525 C   0  0  0  0  0  4           0  0  0
   -0.5384    0.8889    3.6576 C   0  0  0  0  0  4           0  0  0
   -1.5940   -0.8526    1.7540 C   0  0  0  0  0  4           0  0  0
   -0.0218    0.8739    2.3600 C   0  0  0  0  0  4           0  0  0
   -5.0202    1.4062    6.6781 C   0  0  0  0  0  4           0  0  0
   -3.0836   -0.6375    5.9350 C   0  0  0  0  0  4           0  0  0
    1.7131   -2.4985   -0.0017 C   0  0  0  0  0  4           0  0  0
    1.0366   -4.1944   -1.4829 C   0  0  0  0  0  4           0  0  0
    0.0000    0.0000    0.0000 C   0  0  0  0  0  4           0  0  0
    1.7824    2.5210   -0.0190 C   0  0  0  0  0  4           0  0  0
    2.5241    3.4040    0.9801 C   0  0  0  0  0  4           0  0  0
    2.0655    4.8625    1.0025 C   0  0  0  0  0  4           0  0  0
    2.8277    5.7103    2.0101 C   0  0  0  0  0  4           0  0  0
  1 11  1  0     0  0
  2 12  1  0     0  0
  3 13  1  0     0  0
  4 26  2  0     0  0
  5 27  2  0     0  0
  6 28  1  0     0  0
  6 29  1  0     0  0
  7 26  1  0     0  0
  8 14  1  0     0  0
  8 15  1  0     0  0
  8 30  1  0     0  0
  9 11  1  0     0  0
  9 14  2  0     0  0
 10 16  1  0     0  0
 10 27  1  0     0  0
 11 15  2  0     0  0
 12 17  2  0     0  0
 12 20  1  0     0  0
 13 18  2  0     0  0
 13 21  1  0     0  0
 14 31  1  0     0  0
 15 28  1  0     0  0
 16 22  2  0     0  0
 16 23  1  0     0  0
 17 18  1  0     0  0
 17 26  1  0     0  0
 18 27  1  0     0  0
 19 24  2  0     0  0
 19 25  1  0     0  0
 19 30  1  0     0  0
 20 21  2  0     0  0
 22 24  1  0     0  0
 23 25  2  0     0  0
 31 32  1  0     0  0
 32 33  1  0     0  0
 33 34  1  0     0  0
M  END
> <standard_type>
pIC50

> <# Confs.>
25

> <canonical_smiles>
ClC(N=C1CCCC)=C(COC)N1CC2=CC=C(NC(C3=C(Cl)C=CC(Cl)=C3C(O)=O)=O)C=C2

> <standard_relation>
=

> <Publication_ID>
nan

> <predicted_activity_value>
6.698970004336019

> <actual_activity_value>
7.376750709602099

> <Compound>
5

> <standard_units>
nM

> hash
7676056760595389010

$$$$
4
XXILIB    08252103513D 0   0.00000     0.00000

 34 36  0     1  0            999 V2000
    5.0279   -1.4577    0.0746 Cl  0  0  0  0  0  1           0  0  0
   -4.3868    2.8402    9.6528 Cl  0  0  0  0  0  1           0  0  0
   -2.7450   -2.9454    7.9258 Cl  0  0  0  0  0  1           0  0  0
   -2.9763    2.7733    6.3937 O   0  0  0  0  0  2           0  0  0
   -3.7638   -1.4981    5.3807 O   0  0  0  0  0  2           0  0  0
    1.5628   -2.8794   -1.3632 O   0  0  0  0  0  2           0  0  0
   -5.1465    2.1363    6.2459 O   0  0  0  0  0  2           0  0  0
    1.4530   -0.0000   -0.0000 N   0  0  0  0  0  3           0  0  0
    3.5346    0.7633    0.0226 N   0  0  0  0  0  3           0  0  0
   -2.0717    0.0855    5.3315 N   0  0  0  0  0  3           0  0  0
    3.5489   -0.6082    0.0290 C   0  0  0  0  0  4           0  0  0
   -3.9228    1.2663    9.1073 C   0  0  0  0  0  4           0  0  0
   -3.2090   -1.3298    8.3298 C   0  0  0  0  0  4           0  0  0
    2.2664    1.1151    0.0000 C   0  0  0  0  0  4           0  0  0
    2.2632   -1.1242    0.0006 C   0  0  0  0  0  4           0  0  0
   -1.5848    0.0311    4.0103 C   0  0  0  0  0  4           0  0  0
   -3.7125    0.9771    7.7515 C   0  0  0  0  0  4           0  0  0
   -3.3412   -0.3240    7.3609 C   0  0  0  0  0  4           0  0  0
   -0.5412    0.0000    1.3968 C   0  0  0  0  0  4           0  0  0
   -3.7793    0.2600   10.0649 C   0  0  0  0  0  4           0  0  0
   -3.4275   -1.0334    9.6774 C   0  0  0  0  0  4           0  0  0
   -2.1115   -0.8415    3.0525 C   0  0  0  0  0  4           0  0  0
   -0.5384    0.8889    3.6576 C   0  0  0  0  0  4           0  0  0
   -1.5940   -0.8526    1.7540 C   0  0  0  0  0  4           0  0  0
   -0.0218    0.8739    2.3600 C   0  0  0  0  0  4           0  0  0
   -3.8910    2.0412    6.7424 C   0  0  0  0  0  4           0  0  0
   -3.0836   -0.6375    5.9350 C   0  0  0  0  0  4           0  0  0
    1.7131   -2.4985   -0.0017 C   0  0  0  0  0  4           0  0  0
    1.0366   -4.1944   -1.4829 C   0  0  0  0  0  4           0  0  0
    0.0000    0.0000    0.0000 C   0  0  0  0  0  4           0  0  0
    1.7824    2.5210   -0.0190 C   0  0  0  0  0  4           0  0  0
    2.5491    3.3857   -1.0151 C   0  0  0  0  0  4           0  0  0
    2.4628    2.9124   -2.4664 C   0  0  0  0  0  4           0  0  0
    3.2393    3.7992   -3.4285 C   0  0  0  0  0  4           0  0  0
  1 11  1  0     0  0
  2 12  1  0     0  0
  3 13  1  0     0  0
  4 26  2  0     0  0
  5 27  2  0     0  0
  6 28  1  0     0  0
  6 29  1  0     0  0
  7 26  1  0     0  0
  8 14  1  0     0  0
  8 15  1  0     0  0
  8 30  1  0     0  0
  9 11  1  0     0  0
  9 14  2  0     0  0
 10 16  1  0     0  0
 10 27  1  0     0  0
 11 15  2  0     0  0
 12 17  2  0     0  0
 12 20  1  0     0  0
 13 18  2  0     0  0
 13 21  1  0     0  0
 14 31  1  0     0  0
 15 28  1  0     0  0
 16 22  2  0     0  0
 16 23  1  0     0  0
 17 18  1  0     0  0
 17 26  1  0     0  0
 18 27  1  0     0  0
 19 24  2  0     0  0
 19 25  1  0     0  0
 19 30  1  0     0  0
 20 21  2  0     0  0
 22 24  1  0     0  0
 23 25  2  0     0  0
 31 32  1  0     0  0
 32 33  1  0     0  0
 33 34  1  0     0  0
M  END
> <standard_type>
pIC50

> <# Confs.>
25

> <canonical_smiles>
ClC(N=C1CCCC)=C(COC)N1CC2=CC=C(NC(C3=C(Cl)C=CC(Cl)=C3C(O)=O)=O)C=C2

> <standard_relation>
=

> <Publication_ID>
nan

> <predicted_activity_value>
6.698970004336019

> <actual_activity_value>
7.376750709602099

> <Compound>
5

> <standard_units>
nM

> hash
7676056760595389010

$$$$
4
XXILIB    08252103513D 0   0.00000     0.00000

 34 36  0     1  0            999 V2000
    5.0279   -1.4577    0.0746 Cl  0  0  0  0  0  1           0  0  0
   -2.1472   -1.5546   11.0239 Cl  0  0  0  0  0  1           0  0  0
   -5.1407    1.5652    6.5010 Cl  0  0  0  0  0  1           0  0  0
   -0.4952   -1.9691    8.3986 O   0  0  0  0  0  2           0  0  0
   -3.7638   -1.4981    5.3807 O   0  0  0  0  0  2           0  0  0
    1.5628   -2.8794   -1.3632 O   0  0  0  0  0  2           0  0  0
   -2.1429   -3.0876    7.3162 O   0  0  0  0  0  2           0  0  0
    1.4530   -0.0000   -0.0000 N   0  0  0  0  0  3           0  0  0
    3.5346    0.7633    0.0226 N   0  0  0  0  0  3           0  0  0
   -2.0717    0.0855    5.3315 N   0  0  0  0  0  3           0  0  0
    3.5489   -0.6082    0.0290 C   0  0  0  0  0  4           0  0  0
   -2.9439   -0.7376    9.7248 C   0  0  0  0  0  4           0  0  0
   -4.2676    0.6742    7.6979 C   0  0  0  0  0  4           0  0  0
    2.2664    1.1151    0.0000 C   0  0  0  0  0  4           0  0  0
    2.2632   -1.1242    0.0006 C   0  0  0  0  0  4           0  0  0
   -1.5848    0.0311    4.0103 C   0  0  0  0  0  4           0  0  0
   -2.6673   -1.0237    8.3804 C   0  0  0  0  0  4           0  0  0
   -3.3412   -0.3240    7.3609 C   0  0  0  0  0  4           0  0  0
   -0.5412    0.0000    1.3968 C   0  0  0  0  0  4           0  0  0
   -3.8750    0.2513   10.0495 C   0  0  0  0  0  4           0  0  0
   -4.5313    0.9567    9.0403 C   0  0  0  0  0  4           0  0  0
   -2.1115   -0.8415    3.0525 C   0  0  0  0  0  4           0  0  0
   -0.5384    0.8889    3.6576 C   0  0  0  0  0  4           0  0  0
   -1.5940   -0.8526    1.7540 C   0  0  0  0  0  4           0  0  0
   -0.0218    0.8739    2.3600 C   0  0  0  0  0  4           0  0  0
   -1.6625   -2.0537    8.0456 C   0  0  0  0  0  4           0  0  0
   -3.0836   -0.6375    5.9350 C   0  0  0  0  0  4           0  0  0
    1.7131   -2.4985   -0.0017 C   0  0  0  0  0  4           0  0  0
    1.0366   -4.1944   -1.4829 C   0  0  0  0  0  4           0  0  0
    0.0000    0.0000    0.0000 C   0  0  0  0  0  4           0  0  0
    1.7824    2.5210   -0.0190 C   0  0  0  0  0  4           0  0  0
    1.6111    3.0571   -1.4371 C   0  0  0  0  0  4           0  0  0
    1.1145    4.5010   -1.5154 C   0  0  0  0  0  4           0  0  0
   -0.2429    4.6998   -0.8574 C   0  0  0  0  0  4           0  0  0
  1 11  1  0     0  0
  2 12  1  0     0  0
  3 13  1  0     0  0
  4 26  2  0     0  0
  5 27  2  0     0  0
  6 28  1  0     0  0
  6 29  1  0     0  0
  7 26  1  0     0  0
  8 14  1  0     0  0
  8 15  1  0     0  0
  8 30  1  0     0  0
  9 11  1  0     0  0
  9 14  2  0     0  0
 10 16  1  0     0  0
 10 27  1  0     0  0
 11 15  2  0     0  0
 12 17  2  0     0  0
 12 20  1  0     0  0
 13 18  2  0     0  0
 13 21  1  0     0  0
 14 31  1  0     0  0
 15 28  1  0     0  0
 16 22  2  0     0  0
 16 23  1  0     0  0
 17 18  1  0     0  0
 17 26  1  0     0  0
 18 27  1  0     0  0
 19 24  2  0     0  0
 19 25  1  0     0  0
 19 30  1  0     0  0
 20 21  2  0     0  0
 22 24  1  0     0  0
 23 25  2  0     0  0
 31 32  1  0     0  0
 32 33  1  0     0  0
 33 34  1  0     0  0
M  END
> <standard_type>
pIC50

> <# Confs.>
25

> <canonical_smiles>
ClC(N=C1CCCC)=C(COC)N1CC2=CC=C(NC(C3=C(Cl)C=CC(Cl)=C3C(O)=O)=O)C=C2

> <standard_relation>
=

> <Publication_ID>
nan

> <predicted_activity_value>
6.698970004336019

> <actual_activity_value>
7.376750709602099

> <Compound>
5

> <standard_units>
nM

> hash
7676056760595389010

$$$$
4
XXILIB    08252103513D 0   0.00000     0.00000

 34 36  0     1  0            999 V2000
    5.0279   -1.4577    0.0746 Cl  0  0  0  0  0  1           0  0  0
   -5.5970    2.1991    9.5752 Cl  0  0  0  0  0  1           0  0  0
   -1.5018   -2.2617    8.0000 Cl  0  0  0  0  0  1           0  0  0
   -4.9482    2.6191    6.5441 O   0  0  0  0  0  2           0  0  0
   -3.7638   -1.4981    5.3807 O   0  0  0  0  0  2           0  0  0
    1.5628   -2.8794   -1.3632 O   0  0  0  0  0  2           0  0  0
   -5.7966    0.6194    5.8972 O   0  0  0  0  0  2           0  0  0
    1.4530   -0.0000   -0.0000 N   0  0  0  0  0  3           0  0  0
    3.5346    0.7633    0.0226 N   0  0  0  0  0  3           0  0  0
   -2.0717    0.0855    5.3315 N   0  0  0  0  0  3           0  0  0
    3.5489   -0.6082    0.0290 C   0  0  0  0  0  4           0  0  0
   -4.4743    0.9853    9.0694 C   0  0  0  0  0  4           0  0  0
   -2.6568   -1.0276    8.3632 C   0  0  0  0  0  4           0  0  0
    2.2664    1.1151    0.0000 C   0  0  0  0  0  4           0  0  0
    2.2632   -1.1242    0.0006 C   0  0  0  0  0  4           0  0  0
   -1.5848    0.0311    4.0103 C   0  0  0  0  0  4           0  0  0
   -4.2638    0.6784    7.7176 C   0  0  0  0  0  4           0  0  0
   -3.3412   -0.3240    7.3609 C   0  0  0  0  0  4           0  0  0
   -0.5412    0.0000    1.3968 C   0  0  0  0  0  4           0  0  0
   -3.7806    0.2854   10.0590 C   0  0  0  0  0  4           0  0  0
   -2.8785   -0.7193    9.7075 C   0  0  0  0  0  4           0  0  0
   -2.1115   -0.8415    3.0525 C   0  0  0  0  0  4           0  0  0
   -0.5384    0.8889    3.6576 C   0  0  0  0  0  4           0  0  0
   -1.5940   -0.8526    1.7540 C   0  0  0  0  0  4           0  0  0
   -0.0218    0.8739    2.3600 C   0  0  0  0  0  4           0  0  0
   -5.0202    1.4062    6.6781 C   0  0  0  0  0  4           0  0  0
   -3.0836   -0.6375    5.9350 C   0  0  0  0  0  4           0  0  0
    1.7131   -2.4985   -0.0017 C   0  0  0  0  0  4           0  0  0
    1.0366   -4.1944   -1.4829 C   0  0  0  0  0  4           0  0  0
    0.0000    0.0000    0.0000 C   0  0  0  0  0  4           0  0  0
    1.7824    2.5210   -0.0190 C   0  0  0  0  0  4           0  0  0
    1.6111    3.0571   -1.4371 C   0  0  0  0  0  4           0  0  0
    1.1145    4.5010   -1.5154 C   0  0  0  0  0  4           0  0  0
   -0.2429    4.6998   -0.8574 C   0  0  0  0  0  4           0  0  0
  1 11  1  0     0  0
  2 12  1  0     0  0
  3 13  1  0     0  0
  4 26  2  0     0  0
  5 27  2  0     0  0
  6 28  1  0     0  0
  6 29  1  0     0  0
  7 26  1  0     0  0
  8 14  1  0     0  0
  8 15  1  0     0  0
  8 30  1  0     0  0
  9 11  1  0     0  0
  9 14  2  0     0  0
 10 16  1  0     0  0
 10 27  1  0     0  0
 11 15  2  0     0  0
 12 17  2  0     0  0
 12 20  1  0     0  0
 13 18  2  0     0  0
 13 21  1  0     0  0
 14 31  1  0     0  0
 15 28  1  0     0  0
 16 22  2  0     0  0
 16 23  1  0     0  0
 17 18  1  0     0  0
 17 26  1  0     0  0
 18 27  1  0     0  0
 19 24  2  0     0  0
 19 25  1  0     0  0
 19 30  1  0     0  0
 20 21  2  0     0  0
 22 24  1  0     0  0
 23 25  2  0     0  0
 31 32  1  0     0  0
 32 33  1  0     0  0
 33 34  1  0     0  0
M  END
> <standard_type>
pIC50

> <# Confs.>
25

> <canonical_smiles>
ClC(N=C1CCCC)=C(COC)N1CC2=CC=C(NC(C3=C(Cl)C=CC(Cl)=C3C(O)=O)=O)C=C2

> <standard_relation>
=

> <Publication_ID>
nan

> <predicted_activity_value>
6.698970004336019

> <actual_activity_value>
7.376750709602099

> <Compound>
5

> <standard_units>
nM

> hash
7676056760595389010

$$$$
4
XXILIB    08252103513D 0   0.00000     0.00000

 34 36  0     1  0            999 V2000
    5.0279    1.4577   -0.0746 Cl  0  0  0  0  0  1           0  0  0
   -6.0069   -1.7596    9.4164 Cl  0  0  0  0  0  1           0  0  0
   -0.7822    1.4899    8.2789 Cl  0  0  0  0  0  1           0  0  0
   -5.2927   -2.2497    6.4106 O   0  0  0  0  0  2           0  0  0
   -0.9071   -1.5656    6.4876 O   0  0  0  0  0  2           0  0  0
    1.5574    2.8818   -1.3585 O   0  0  0  0  0  2           0  0  0
   -3.3208   -3.2745    6.8565 O   0  0  0  0  0  2           0  0  0
    1.4530    0.0000    0.0000 N   0  0  0  0  0  3           0  0  0
    3.5346   -0.7633   -0.0226 N   0  0  0  0  0  3           0  0  0
   -2.1462   -0.0055    5.3027 N   0  0  0  0  0  3           0  0  0
    3.5489    0.6082   -0.0290 C   0  0  0  0  0  4           0  0  0
   -4.5581   -0.8954    9.0370 C   0  0  0  0  0  4           0  0  0
   -2.2060    0.5442    8.5378 C   0  0  0  0  0  4           0  0  0
    2.2664   -1.1151    0.0000 C   0  0  0  0  0  4           0  0  0
    2.2632    1.1242   -0.0006 C   0  0  0  0  0  4           0  0  0
   -1.5869   -0.0289    4.0095 C   0  0  0  0  0  4           0  0  0
   -3.7891   -1.1875    7.9015 C   0  0  0  0  0  4           0  0  0
   -2.6138   -0.4561    7.6428 C   0  0  0  0  0  4           0  0  0
   -0.5412    0.0000    1.3968 C   0  0  0  0  0  4           0  0  0
   -4.1483    0.1089    9.9166 C   0  0  0  0  0  4           0  0  0
   -2.9753    0.8232    9.6700 C   0  0  0  0  0  4           0  0  0
   -0.5193   -0.8661    3.6694 C   0  0  0  0  0  4           0  0  0
   -2.1314    0.8194    3.0404 C   0  0  0  0  0  4           0  0  0
   -0.0039   -0.8526    2.3701 C   0  0  0  0  0  4           0  0  0
   -1.6127    0.8323    1.7436 C   0  0  0  0  0  4           0  0  0
   -4.2162   -2.2684    6.9896 C   0  0  0  0  0  4           0  0  0
   -1.8074   -0.7311    6.4295 C   0  0  0  0  0  4           0  0  0
    1.7131    2.4985    0.0017 C   0  0  0  0  0  4           0  0  0
    1.0308    4.1970   -1.4739 C   0  0  0  0  0  4           0  0  0
    0.0000    0.0000    0.0000 C   0  0  0  0  0  4           0  0  0
    1.7824   -2.5210    0.0190 C   0  0  0  0  0  4           0  0  0
    2.5241   -3.4040   -0.9801 C   0  0  0  0  0  4           0  0  0
    2.4013   -2.9573   -2.4372 C   0  0  0  0  0  4           0  0  0
    3.1535   -3.8618   -3.4021 C   0  0  0  0  0  4           0  0  0
  1 11  1  0     0  0
  2 12  1  0     0  0
  3 13  1  0     0  0
  4 26  2  0     0  0
  5 27  2  0     0  0
  6 28  1  0     0  0
  6 29  1  0     0  0
  7 26  1  0     0  0
  8 14  1  0     0  0
  8 15  1  0     0  0
  8 30  1  0     0  0
  9 11  1  0     0  0
  9 14  2  0     0  0
 10 16  1  0     0  0
 10 27  1  0     0  0
 11 15  2  0     0  0
 12 17  2  0     0  0
 12 20  1  0     0  0
 13 18  2  0     0  0
 13 21  1  0     0  0
 14 31  1  0     0  0
 15 28  1  0     0  0
 16 22  2  0     0  0
 16 23  1  0     0  0
 17 18  1  0     0  0
 17 26  1  0     0  0
 18 27  1  0     0  0
 19 24  2  0     0  0
 19 25  1  0     0  0
 19 30  1  0     0  0
 20 21  2  0     0  0
 22 24  1  0     0  0
 23 25  2  0     0  0
 31 32  1  0     0  0
 32 33  1  0     0  0
 33 34  1  0     0  0
M  END
> <standard_type>
pIC50

> <# Confs.>
25

> <canonical_smiles>
ClC(N=C1CCCC)=C(COC)N1CC2=CC=C(NC(C3=C(Cl)C=CC(Cl)=C3C(O)=O)=O)C=C2

> <standard_relation>
=

> <Publication_ID>
nan

> <predicted_activity_value>
6.698970004336019

> <actual_activity_value>
7.376750709602099

> <Compound>
5

> <standard_units>
nM

> hash
7676056760595389010

$$$$
4
XXILIB    08252103513D 0   0.00000     0.00000

 34 36  0     1  0            999 V2000
    5.0279   -1.4577    0.0746 Cl  0  0  0  0  0  1           0  0  0
   -4.3868    2.8402    9.6528 Cl  0  0  0  0  0  1           0  0  0
   -2.7450   -2.9454    7.9258 Cl  0  0  0  0  0  1           0  0  0
   -2.9763    2.7733    6.3937 O   0  0  0  0  0  2           0  0  0
   -3.7638   -1.4981    5.3807 O   0  0  0  0  0  2           0  0  0
    1.5628   -2.8794   -1.3632 O   0  0  0  0  0  2           0  0  0
   -5.1465    2.1363    6.2459 O   0  0  0  0  0  2           0  0  0
    1.4530   -0.0000   -0.0000 N   0  0  0  0  0  3           0  0  0
    3.5346    0.7633    0.0226 N   0  0  0  0  0  3           0  0  0
   -2.0717    0.0855    5.3315 N   0  0  0  0  0  3           0  0  0
    3.5489   -0.6082    0.0290 C   0  0  0  0  0  4           0  0  0
   -3.9228    1.2663    9.1073 C   0  0  0  0  0  4           0  0  0
   -3.2090   -1.3298    8.3298 C   0  0  0  0  0  4           0  0  0
    2.2664    1.1151    0.0000 C   0  0  0  0  0  4           0  0  0
    2.2632   -1.1242    0.0006 C   0  0  0  0  0  4           0  0  0
   -1.5848    0.0311    4.0103 C   0  0  0  0  0  4           0  0  0
   -3.7125    0.9771    7.7515 C   0  0  0  0  0  4           0  0  0
   -3.3412   -0.3240    7.3609 C   0  0  0  0  0  4           0  0  0
   -0.5412    0.0000    1.3968 C   0  0  0  0  0  4           0  0  0
   -3.7793    0.2600   10.0649 C   0  0  0  0  0  4           0  0  0
   -3.4275   -1.0334    9.6774 C   0  0  0  0  0  4           0  0  0
   -2.1115   -0.8415    3.0525 C   0  0  0  0  0  4           0  0  0
   -0.5384    0.8889    3.6576 C   0  0  0  0  0  4           0  0  0
   -1.5940   -0.8526    1.7540 C   0  0  0  0  0  4           0  0  0
   -0.0218    0.8739    2.3600 C   0  0  0  0  0  4           0  0  0
   -3.8910    2.0412    6.7424 C   0  0  0  0  0  4           0  0  0
   -3.0836   -0.6375    5.9350 C   0  0  0  0  0  4           0  0  0
    1.7131   -2.4985   -0.0017 C   0  0  0  0  0  4           0  0  0
    1.0366   -4.1944   -1.4829 C   0  0  0  0  0  4           0  0  0
    0.0000    0.0000    0.0000 C   0  0  0  0  0  4           0  0  0
    1.7824    2.5210   -0.0190 C   0  0  0  0  0  4           0  0  0
    2.5491    3.3857   -1.0151 C   0  0  0  0  0  4           0  0  0
    2.0916    4.8434   -1.0757 C   0  0  0  0  0  4           0  0  0
    2.8791    5.6728   -2.0792 C   0  0  0  0  0  4           0  0  0
  1 11  1  0     0  0
  2 12  1  0     0  0
  3 13  1  0     0  0
  4 26  2  0     0  0
  5 27  2  0     0  0
  6 28  1  0     0  0
  6 29  1  0     0  0
  7 26  1  0     0  0
  8 14  1  0     0  0
  8 15  1  0     0  0
  8 30  1  0     0  0
  9 11  1  0     0  0
  9 14  2  0     0  0
 10 16  1  0     0  0
 10 27  1  0     0  0
 11 15  2  0     0  0
 12 17  2  0     0  0
 12 20  1  0     0  0
 13 18  2  0     0  0
 13 21  1  0     0  0
 14 31  1  0     0  0
 15 28  1  0     0  0
 16 22  2  0     0  0
 16 23  1  0     0  0
 17 18  1  0     0  0
 17 26  1  0     0  0
 18 27  1  0     0  0
 19 24  2  0     0  0
 19 25  1  0     0  0
 19 30  1  0     0  0
 20 21  2  0     0  0
 22 24  1  0     0  0
 23 25  2  0     0  0
 31 32  1  0     0  0
 32 33  1  0     0  0
 33 34  1  0     0  0
M  END
> <standard_type>
pIC50

> <# Confs.>
25

> <canonical_smiles>
ClC(N=C1CCCC)=C(COC)N1CC2=CC=C(NC(C3=C(Cl)C=CC(Cl)=C3C(O)=O)=O)C=C2

> <standard_relation>
=

> <Publication_ID>
nan

> <predicted_activity_value>
6.698970004336019

> <actual_activity_value>
7.376750709602099

> <Compound>
5

> <standard_units>
nM

> hash
7676056760595389010

$$$$
4
XXILIB    08252103513D 0   0.00000     0.00000

 34 36  0     1  0            999 V2000
    5.0279    1.4577   -0.0746 Cl  0  0  0  0  0  1           0  0  0
   -6.0069   -1.7596    9.4164 Cl  0  0  0  0  0  1           0  0  0
   -0.7822    1.4899    8.2789 Cl  0  0  0  0  0  1           0  0  0
   -5.2927   -2.2497    6.4106 O   0  0  0  0  0  2           0  0  0
   -0.9071   -1.5656    6.4876 O   0  0  0  0  0  2           0  0  0
    1.5574    2.8818   -1.3585 O   0  0  0  0  0  2           0  0  0
   -3.3208   -3.2745    6.8565 O   0  0  0  0  0  2           0  0  0
    1.4530    0.0000    0.0000 N   0  0  0  0  0  3           0  0  0
    3.5346   -0.7633   -0.0226 N   0  0  0  0  0  3           0  0  0
   -2.1462   -0.0055    5.3027 N   0  0  0  0  0  3           0  0  0
    3.5489    0.6082   -0.0290 C   0  0  0  0  0  4           0  0  0
   -4.5581   -0.8954    9.0370 C   0  0  0  0  0  4           0  0  0
   -2.2060    0.5442    8.5378 C   0  0  0  0  0  4           0  0  0
    2.2664   -1.1151    0.0000 C   0  0  0  0  0  4           0  0  0
    2.2632    1.1242   -0.0006 C   0  0  0  0  0  4           0  0  0
   -1.5869   -0.0289    4.0095 C   0  0  0  0  0  4           0  0  0
   -3.7891   -1.1875    7.9015 C   0  0  0  0  0  4           0  0  0
   -2.6138   -0.4561    7.6428 C   0  0  0  0  0  4           0  0  0
   -0.5412    0.0000    1.3968 C   0  0  0  0  0  4           0  0  0
   -4.1483    0.1089    9.9166 C   0  0  0  0  0  4           0  0  0
   -2.9753    0.8232    9.6700 C   0  0  0  0  0  4           0  0  0
   -0.5193   -0.8661    3.6694 C   0  0  0  0  0  4           0  0  0
   -2.1314    0.8194    3.0404 C   0  0  0  0  0  4           0  0  0
   -0.0039   -0.8526    2.3701 C   0  0  0  0  0  4           0  0  0
   -1.6127    0.8323    1.7436 C   0  0  0  0  0  4           0  0  0
   -4.2162   -2.2684    6.9896 C   0  0  0  0  0  4           0  0  0
   -1.8074   -0.7311    6.4295 C   0  0  0  0  0  4           0  0  0
    1.7131    2.4985    0.0017 C   0  0  0  0  0  4           0  0  0
    1.0308    4.1970   -1.4739 C   0  0  0  0  0  4           0  0  0
    0.0000    0.0000    0.0000 C   0  0  0  0  0  4           0  0  0
    1.7824   -2.5210    0.0190 C   0  0  0  0  0  4           0  0  0
    2.5241   -3.4040   -0.9801 C   0  0  0  0  0  4           0  0  0
    2.0655   -4.8625   -1.0025 C   0  0  0  0  0  4           0  0  0
    2.8277   -5.7103   -2.0101 C   0  0  0  0  0  4           0  0  0
  1 11  1  0     0  0
  2 12  1  0     0  0
  3 13  1  0     0  0
  4 26  2  0     0  0
  5 27  2  0     0  0
  6 28  1  0     0  0
  6 29  1  0     0  0
  7 26  1  0     0  0
  8 14  1  0     0  0
  8 15  1  0     0  0
  8 30  1  0     0  0
  9 11  1  0     0  0
  9 14  2  0     0  0
 10 16  1  0     0  0
 10 27  1  0     0  0
 11 15  2  0     0  0
 12 17  2  0     0  0
 12 20  1  0     0  0
 13 18  2  0     0  0
 13 21  1  0     0  0
 14 31  1  0     0  0
 15 28  1  0     0  0
 16 22  2  0     0  0
 16 23  1  0     0  0
 17 18  1  0     0  0
 17 26  1  0     0  0
 18 27  1  0     0  0
 19 24  2  0     0  0
 19 25  1  0     0  0
 19 30  1  0     0  0
 20 21  2  0     0  0
 22 24  1  0     0  0
 23 25  2  0     0  0
 31 32  1  0     0  0
 32 33  1  0     0  0
 33 34  1  0     0  0
M  END
> <standard_type>
pIC50

> <# Confs.>
25

> <canonical_smiles>
ClC(N=C1CCCC)=C(COC)N1CC2=CC=C(NC(C3=C(Cl)C=CC(Cl)=C3C(O)=O)=O)C=C2

> <standard_relation>
=

> <Publication_ID>
nan

> <predicted_activity_value>
6.698970004336019

> <actual_activity_value>
7.376750709602099

> <Compound>
5

> <standard_units>
nM

> hash
7676056760595389010

$$$$
4
XXILIB    08252103513D 0   0.00000     0.00000

 34 36  0     1  0            999 V2000
    5.0279   -1.4577    0.0746 Cl  0  0  0  0  0  1           0  0  0
   -4.3868    2.8402    9.6528 Cl  0  0  0  0  0  1           0  0  0
   -2.7450   -2.9454    7.9258 Cl  0  0  0  0  0  1           0  0  0
   -2.9763    2.7733    6.3937 O   0  0  0  0  0  2           0  0  0
   -3.7638   -1.4981    5.3807 O   0  0  0  0  0  2           0  0  0
    1.5628   -2.8794   -1.3632 O   0  0  0  0  0  2           0  0  0
   -5.1465    2.1363    6.2459 O   0  0  0  0  0  2           0  0  0
    1.4530   -0.0000   -0.0000 N   0  0  0  0  0  3           0  0  0
    3.5346    0.7633    0.0226 N   0  0  0  0  0  3           0  0  0
   -2.0717    0.0855    5.3315 N   0  0  0  0  0  3           0  0  0
    3.5489   -0.6082    0.0290 C   0  0  0  0  0  4           0  0  0
   -3.9228    1.2663    9.1073 C   0  0  0  0  0  4           0  0  0
   -3.2090   -1.3298    8.3298 C   0  0  0  0  0  4           0  0  0
    2.2664    1.1151    0.0000 C   0  0  0  0  0  4           0  0  0
    2.2632   -1.1242    0.0006 C   0  0  0  0  0  4           0  0  0
   -1.5848    0.0311    4.0103 C   0  0  0  0  0  4           0  0  0
   -3.7125    0.9771    7.7515 C   0  0  0  0  0  4           0  0  0
   -3.3412   -0.3240    7.3609 C   0  0  0  0  0  4           0  0  0
   -0.5412    0.0000    1.3968 C   0  0  0  0  0  4           0  0  0
   -3.7793    0.2600   10.0649 C   0  0  0  0  0  4           0  0  0
   -3.4275   -1.0334    9.6774 C   0  0  0  0  0  4           0  0  0
   -2.1115   -0.8415    3.0525 C   0  0  0  0  0  4           0  0  0
   -0.5384    0.8889    3.6576 C   0  0  0  0  0  4           0  0  0
   -1.5940   -0.8526    1.7540 C   0  0  0  0  0  4           0  0  0
   -0.0218    0.8739    2.3600 C   0  0  0  0  0  4           0  0  0
   -3.8910    2.0412    6.7424 C   0  0  0  0  0  4           0  0  0
   -3.0836   -0.6375    5.9350 C   0  0  0  0  0  4           0  0  0
    1.7131   -2.4985   -0.0017 C   0  0  0  0  0  4           0  0  0
    1.0366   -4.1944   -1.4829 C   0  0  0  0  0  4           0  0  0
    0.0000    0.0000    0.0000 C   0  0  0  0  0  4           0  0  0
    1.7824    2.5210   -0.0190 C   0  0  0  0  0  4           0  0  0
    2.5241    3.4040    0.9801 C   0  0  0  0  0  4           0  0  0
    2.0655    4.8625    1.0025 C   0  0  0  0  0  4           0  0  0
    2.8277    5.7103    2.0101 C   0  0  0  0  0  4           0  0  0
  1 11  1  0     0  0
  2 12  1  0     0  0
  3 13  1  0     0  0
  4 26  2  0     0  0
  5 27  2  0     0  0
  6 28  1  0     0  0
  6 29  1  0     0  0
  7 26  1  0     0  0
  8 14  1  0     0  0
  8 15  1  0     0  0
  8 30  1  0     0  0
  9 11  1  0     0  0
  9 14  2  0     0  0
 10 16  1  0     0  0
 10 27  1  0     0  0
 11 15  2  0     0  0
 12 17  2  0     0  0
 12 20  1  0     0  0
 13 18  2  0     0  0
 13 21  1  0     0  0
 14 31  1  0     0  0
 15 28  1  0     0  0
 16 22  2  0     0  0
 16 23  1  0     0  0
 17 18  1  0     0  0
 17 26  1  0     0  0
 18 27  1  0     0  0
 19 24  2  0     0  0
 19 25  1  0     0  0
 19 30  1  0     0  0
 20 21  2  0     0  0
 22 24  1  0     0  0
 23 25  2  0     0  0
 31 32  1  0     0  0
 32 33  1  0     0  0
 33 34  1  0     0  0
M  END
> <standard_type>
pIC50

> <# Confs.>
25

> <canonical_smiles>
ClC(N=C1CCCC)=C(COC)N1CC2=CC=C(NC(C3=C(Cl)C=CC(Cl)=C3C(O)=O)=O)C=C2

> <standard_relation>
=

> <Publication_ID>
nan

> <predicted_activity_value>
6.698970004336019

> <actual_activity_value>
7.376750709602099

> <Compound>
5

> <standard_units>
nM

> hash
7676056760595389010

$$$$
4
XXILIB    08252103513D 0   0.00000     0.00000

 34 36  0     1  0            999 V2000
    5.0279    1.4577   -0.0746 Cl  0  0  0  0  0  1           0  0  0
   -6.0069   -1.7596    9.4164 Cl  0  0  0  0  0  1           0  0  0
   -0.7822    1.4899    8.2789 Cl  0  0  0  0  0  1           0  0  0
   -5.2927   -2.2497    6.4106 O   0  0  0  0  0  2           0  0  0
   -0.9071   -1.5656    6.4876 O   0  0  0  0  0  2           0  0  0
    1.5574    2.8818   -1.3585 O   0  0  0  0  0  2           0  0  0
   -3.3208   -3.2745    6.8565 O   0  0  0  0  0  2           0  0  0
    1.4530    0.0000    0.0000 N   0  0  0  0  0  3           0  0  0
    3.5346   -0.7633   -0.0226 N   0  0  0  0  0  3           0  0  0
   -2.1462   -0.0055    5.3027 N   0  0  0  0  0  3           0  0  0
    3.5489    0.6082   -0.0290 C   0  0  0  0  0  4           0  0  0
   -4.5581   -0.8954    9.0370 C   0  0  0  0  0  4           0  0  0
   -2.2060    0.5442    8.5378 C   0  0  0  0  0  4           0  0  0
    2.2664   -1.1151    0.0000 C   0  0  0  0  0  4           0  0  0
    2.2632    1.1242   -0.0006 C   0  0  0  0  0  4           0  0  0
   -1.5869   -0.0289    4.0095 C   0  0  0  0  0  4           0  0  0
   -3.7891   -1.1875    7.9015 C   0  0  0  0  0  4           0  0  0
   -2.6138   -0.4561    7.6428 C   0  0  0  0  0  4           0  0  0
   -0.5412    0.0000    1.3968 C   0  0  0  0  0  4           0  0  0
   -4.1483    0.1089    9.9166 C   0  0  0  0  0  4           0  0  0
   -2.9753    0.8232    9.6700 C   0  0  0  0  0  4           0  0  0
   -0.5193   -0.8661    3.6694 C   0  0  0  0  0  4           0  0  0
   -2.1314    0.8194    3.0404 C   0  0  0  0  0  4           0  0  0
   -0.0039   -0.8526    2.3701 C   0  0  0  0  0  4           0  0  0
   -1.6127    0.8323    1.7436 C   0  0  0  0  0  4           0  0  0
   -4.2162   -2.2684    6.9896 C   0  0  0  0  0  4           0  0  0
   -1.8074   -0.7311    6.4295 C   0  0  0  0  0  4           0  0  0
    1.7131    2.4985    0.0017 C   0  0  0  0  0  4           0  0  0
    1.0308    4.1970   -1.4739 C   0  0  0  0  0  4           0  0  0
    0.0000    0.0000    0.0000 C   0  0  0  0  0  4           0  0  0
    1.7824   -2.5210    0.0190 C   0  0  0  0  0  4           0  0  0
    2.5491   -3.3857    1.0151 C   0  0  0  0  0  4           0  0  0
    2.0916   -4.8434    1.0757 C   0  0  0  0  0  4           0  0  0
    2.8791   -5.6728    2.0792 C   0  0  0  0  0  4           0  0  0
  1 11  1  0     0  0
  2 12  1  0     0  0
  3 13  1  0     0  0
  4 26  2  0     0  0
  5 27  2  0     0  0
  6 28  1  0     0  0
  6 29  1  0     0  0
  7 26  1  0     0  0
  8 14  1  0     0  0
  8 15  1  0     0  0
  8 30  1  0     0  0
  9 11  1  0     0  0
  9 14  2  0     0  0
 10 16  1  0     0  0
 10 27  1  0     0  0
 11 15  2  0     0  0
 12 17  2  0     0  0
 12 20  1  0     0  0
 13 18  2  0     0  0
 13 21  1  0     0  0
 14 31  1  0     0  0
 15 28  1  0     0  0
 16 22  2  0     0  0
 16 23  1  0     0  0
 17 18  1  0     0  0
 17 26  1  0     0  0
 18 27  1  0     0  0
 19 24  2  0     0  0
 19 25  1  0     0  0
 19 30  1  0     0  0
 20 21  2  0     0  0
 22 24  1  0     0  0
 23 25  2  0     0  0
 31 32  1  0     0  0
 32 33  1  0     0  0
 33 34  1  0     0  0
M  END
> <standard_type>
pIC50

> <# Confs.>
25

> <canonical_smiles>
ClC(N=C1CCCC)=C(COC)N1CC2=CC=C(NC(C3=C(Cl)C=CC(Cl)=C3C(O)=O)=O)C=C2

> <standard_relation>
=

> <Publication_ID>
nan

> <predicted_activity_value>
6.698970004336019

> <actual_activity_value>
7.376750709602099

> <Compound>
5

> <standard_units>
nM

> hash
7676056760595389010

$$$$
4
XXILIB    08252103513D 0   0.00000     0.00000

 34 36  0     1  0            999 V2000
    5.0279   -1.4577    0.0746 Cl  0  0  0  0  0  1           0  0  0
   -3.3575   -2.1956   10.9462 Cl  0  0  0  0  0  1           0  0  0
   -3.8975    2.2490    6.5753 Cl  0  0  0  0  0  1           0  0  0
   -1.6165   -3.0245    7.9617 O   0  0  0  0  0  2           0  0  0
   -3.7638   -1.4981    5.3807 O   0  0  0  0  0  2           0  0  0
    1.5628   -2.8794   -1.3632 O   0  0  0  0  0  2           0  0  0
   -3.8070   -3.5271    7.6684 O   0  0  0  0  0  2           0  0  0
    1.4530   -0.0000   -0.0000 N   0  0  0  0  0  3           0  0  0
    3.5346    0.7633    0.0226 N   0  0  0  0  0  3           0  0  0
   -2.0717    0.0855    5.3315 N   0  0  0  0  0  3           0  0  0
    3.5489   -0.6082    0.0290 C   0  0  0  0  0  4           0  0  0
   -3.4954   -1.0186    9.6870 C   0  0  0  0  0  4           0  0  0
   -3.7153    0.9764    7.7312 C   0  0  0  0  0  4           0  0  0
    2.2664    1.1151    0.0000 C   0  0  0  0  0  4           0  0  0
    2.2632   -1.1242    0.0006 C   0  0  0  0  0  4           0  0  0
   -1.5848    0.0311    4.0103 C   0  0  0  0  0  4           0  0  0
   -3.2186   -1.3223    8.3465 C   0  0  0  0  0  4           0  0  0
   -3.3412   -0.3240    7.3609 C   0  0  0  0  0  4           0  0  0
   -0.5412    0.0000    1.3968 C   0  0  0  0  0  4           0  0  0
   -3.8764    0.2767   10.0437 C   0  0  0  0  0  4           0  0  0
   -3.9823    1.2709    9.0704 C   0  0  0  0  0  4           0  0  0
   -2.1115   -0.8415    3.0525 C   0  0  0  0  0  4           0  0  0
   -0.5384    0.8889    3.6576 C   0  0  0  0  0  4           0  0  0
   -1.5940   -0.8526    1.7540 C   0  0  0  0  0  4           0  0  0
   -0.0218    0.8739    2.3600 C   0  0  0  0  0  4           0  0  0
   -2.7917   -2.6887    7.9812 C   0  0  0  0  0  4           0  0  0
   -3.0836   -0.6375    5.9350 C   0  0  0  0  0  4           0  0  0
    1.7131   -2.4985   -0.0017 C   0  0  0  0  0  4           0  0  0
    1.0366   -4.1944   -1.4829 C   0  0  0  0  0  4           0  0  0
    0.0000    0.0000    0.0000 C   0  0  0  0  0  4           0  0  0
    1.7824    2.5210   -0.0190 C   0  0  0  0  0  4           0  0  0
    2.5491    3.3857   -1.0151 C   0  0  0  0  0  4           0  0  0
    2.4628    2.9124   -2.4664 C   0  0  0  0  0  4           0  0  0
    3.2393    3.7992   -3.4285 C   0  0  0  0  0  4           0  0  0
  1 11  1  0     0  0
  2 12  1  0     0  0
  3 13  1  0     0  0
  4 26  2  0     0  0
  5 27  2  0     0  0
  6 28  1  0     0  0
  6 29  1  0     0  0
  7 26  1  0     0  0
  8 14  1  0     0  0
  8 15  1  0     0  0
  8 30  1  0     0  0
  9 11  1  0     0  0
  9 14  2  0     0  0
 10 16  1  0     0  0
 10 27  1  0     0  0
 11 15  2  0     0  0
 12 17  2  0     0  0
 12 20  1  0     0  0
 13 18  2  0     0  0
 13 21  1  0     0  0
 14 31  1  0     0  0
 15 28  1  0     0  0
 16 22  2  0     0  0
 16 23  1  0     0  0
 17 18  1  0     0  0
 17 26  1  0     0  0
 18 27  1  0     0  0
 19 24  2  0     0  0
 19 25  1  0     0  0
 19 30  1  0     0  0
 20 21  2  0     0  0
 22 24  1  0     0  0
 23 25  2  0     0  0
 31 32  1  0     0  0
 32 33  1  0     0  0
 33 34  1  0     0  0
M  END
> <standard_type>
pIC50

> <# Confs.>
25

> <canonical_smiles>
ClC(N=C1CCCC)=C(COC)N1CC2=CC=C(NC(C3=C(Cl)C=CC(Cl)=C3C(O)=O)=O)C=C2

> <standard_relation>
=

> <Publication_ID>
nan

> <predicted_activity_value>
6.698970004336019

> <actual_activity_value>
7.376750709602099

> <Compound>
5

> <standard_units>
nM

> hash
7676056760595389010

$$$$
4
XXILIB    08252103513D 0   0.00000     0.00000

 34 36  0     1  0            999 V2000
    5.0279   -1.4577    0.0746 Cl  0  0  0  0  0  1           0  0  0
   -3.3575   -2.1956   10.9462 Cl  0  0  0  0  0  1           0  0  0
   -3.8975    2.2490    6.5753 Cl  0  0  0  0  0  1           0  0  0
   -1.6165   -3.0245    7.9617 O   0  0  0  0  0  2           0  0  0
   -3.7638   -1.4981    5.3807 O   0  0  0  0  0  2           0  0  0
    1.5628   -2.8794   -1.3632 O   0  0  0  0  0  2           0  0  0
   -3.8070   -3.5271    7.6684 O   0  0  0  0  0  2           0  0  0
    1.4530   -0.0000   -0.0000 N   0  0  0  0  0  3           0  0  0
    3.5346    0.7633    0.0226 N   0  0  0  0  0  3           0  0  0
   -2.0717    0.0855    5.3315 N   0  0  0  0  0  3           0  0  0
    3.5489   -0.6082    0.0290 C   0  0  0  0  0  4           0  0  0
   -3.4954   -1.0186    9.6870 C   0  0  0  0  0  4           0  0  0
   -3.7153    0.9764    7.7312 C   0  0  0  0  0  4           0  0  0
    2.2664    1.1151    0.0000 C   0  0  0  0  0  4           0  0  0
    2.2632   -1.1242    0.0006 C   0  0  0  0  0  4           0  0  0
   -1.5848    0.0311    4.0103 C   0  0  0  0  0  4           0  0  0
   -3.2186   -1.3223    8.3465 C   0  0  0  0  0  4           0  0  0
   -3.3412   -0.3240    7.3609 C   0  0  0  0  0  4           0  0  0
   -0.5412    0.0000    1.3968 C   0  0  0  0  0  4           0  0  0
   -3.8764    0.2767   10.0437 C   0  0  0  0  0  4           0  0  0
   -3.9823    1.2709    9.0704 C   0  0  0  0  0  4           0  0  0
   -2.1115   -0.8415    3.0525 C   0  0  0  0  0  4           0  0  0
   -0.5384    0.8889    3.6576 C   0  0  0  0  0  4           0  0  0
   -1.5940   -0.8526    1.7540 C   0  0  0  0  0  4           0  0  0
   -0.0218    0.8739    2.3600 C   0  0  0  0  0  4           0  0  0
   -2.7917   -2.6887    7.9812 C   0  0  0  0  0  4           0  0  0
   -3.0836   -0.6375    5.9350 C   0  0  0  0  0  4           0  0  0
    1.7131   -2.4985   -0.0017 C   0  0  0  0  0  4           0  0  0
    1.0366   -4.1944   -1.4829 C   0  0  0  0  0  4           0  0  0
    0.0000    0.0000    0.0000 C   0  0  0  0  0  4           0  0  0
    1.7824    2.5210   -0.0190 C   0  0  0  0  0  4           0  0  0
    2.5491    3.3857   -1.0151 C   0  0  0  0  0  4           0  0  0
    2.0916    4.8434   -1.0757 C   0  0  0  0  0  4           0  0  0
    2.8791    5.6728   -2.0792 C   0  0  0  0  0  4           0  0  0
  1 11  1  0     0  0
  2 12  1  0     0  0
  3 13  1  0     0  0
  4 26  2  0     0  0
  5 27  2  0     0  0
  6 28  1  0     0  0
  6 29  1  0     0  0
  7 26  1  0     0  0
  8 14  1  0     0  0
  8 15  1  0     0  0
  8 30  1  0     0  0
  9 11  1  0     0  0
  9 14  2  0     0  0
 10 16  1  0     0  0
 10 27  1  0     0  0
 11 15  2  0     0  0
 12 17  2  0     0  0
 12 20  1  0     0  0
 13 18  2  0     0  0
 13 21  1  0     0  0
 14 31  1  0     0  0
 15 28  1  0     0  0
 16 22  2  0     0  0
 16 23  1  0     0  0
 17 18  1  0     0  0
 17 26  1  0     0  0
 18 27  1  0     0  0
 19 24  2  0     0  0
 19 25  1  0     0  0
 19 30  1  0     0  0
 20 21  2  0     0  0
 22 24  1  0     0  0
 23 25  2  0     0  0
 31 32  1  0     0  0
 32 33  1  0     0  0
 33 34  1  0     0  0
M  END
> <standard_type>
pIC50

> <# Confs.>
25

> <canonical_smiles>
ClC(N=C1CCCC)=C(COC)N1CC2=CC=C(NC(C3=C(Cl)C=CC(Cl)=C3C(O)=O)=O)C=C2

> <standard_relation>
=

> <Publication_ID>
nan

> <predicted_activity_value>
6.698970004336019

> <actual_activity_value>
7.376750709602099

> <Compound>
5

> <standard_units>
nM

> hash
7676056760595389010

$$$$
4
XXILIB    08252103513D 0   0.00000     0.00000

 34 36  0     1  0            999 V2000
    5.0279    1.4577   -0.0746 Cl  0  0  0  0  0  1           0  0  0
   -6.4728   -0.6030    8.8446 Cl  0  0  0  0  0  1           0  0  0
   -0.2819    0.3039    8.8802 Cl  0  0  0  0  0  1           0  0  0
   -5.1284   -0.4653    5.5599 O   0  0  0  0  0  2           0  0  0
   -0.9071   -1.5656    6.4876 O   0  0  0  0  0  2           0  0  0
    1.5574    2.8818   -1.3585 O   0  0  0  0  0  2           0  0  0
   -4.7679   -2.5423    6.3926 O   0  0  0  0  0  2           0  0  0
    1.4530    0.0000    0.0000 N   0  0  0  0  0  3           0  0  0
    3.5346   -0.7633   -0.0226 N   0  0  0  0  0  3           0  0  0
   -2.1462   -0.0055    5.3027 N   0  0  0  0  0  3           0  0  0
    3.5489    0.6082   -0.0290 C   0  0  0  0  0  4           0  0  0
   -4.7609   -0.3675    8.7826 C   0  0  0  0  0  4           0  0  0
   -1.9850    0.0172    8.8041 C   0  0  0  0  0  4           0  0  0
    2.2664   -1.1151    0.0000 C   0  0  0  0  0  4           0  0  0
    2.2632    1.1242   -0.0006 C   0  0  0  0  0  4           0  0  0
   -1.5869   -0.0289    4.0095 C   0  0  0  0  0  4           0  0  0
   -4.0070   -0.6612    7.6374 C   0  0  0  0  0  4           0  0  0
   -2.6138   -0.4561    7.6428 C   0  0  0  0  0  4           0  0  0
   -0.5412    0.0000    1.3968 C   0  0  0  0  0  4           0  0  0
   -4.1264    0.1123    9.9303 C   0  0  0  0  0  4           0  0  0
   -2.7439    0.3004    9.9423 C   0  0  0  0  0  4           0  0  0
   -0.5193   -0.8661    3.6694 C   0  0  0  0  0  4           0  0  0
   -2.1314    0.8194    3.0404 C   0  0  0  0  0  4           0  0  0
   -0.0039   -0.8526    2.3701 C   0  0  0  0  0  4           0  0  0
   -1.6127    0.8323    1.7436 C   0  0  0  0  0  4           0  0  0
   -4.6826   -1.1923    6.4357 C   0  0  0  0  0  4           0  0  0
   -1.8074   -0.7311    6.4295 C   0  0  0  0  0  4           0  0  0
    1.7131    2.4985    0.0017 C   0  0  0  0  0  4           0  0  0
    1.0308    4.1970   -1.4739 C   0  0  0  0  0  4           0  0  0
    0.0000    0.0000    0.0000 C   0  0  0  0  0  4           0  0  0
    1.7824   -2.5210    0.0190 C   0  0  0  0  0  4           0  0  0
    2.5241   -3.4040   -0.9801 C   0  0  0  0  0  4           0  0  0
    2.4013   -2.9573   -2.4372 C   0  0  0  0  0  4           0  0  0
    3.1535   -3.8618   -3.4021 C   0  0  0  0  0  4           0  0  0
  1 11  1  0     0  0
  2 12  1  0     0  0
  3 13  1  0     0  0
  4 26  2  0     0  0
  5 27  2  0     0  0
  6 28  1  0     0  0
  6 29  1  0     0  0
  7 26  1  0     0  0
  8 14  1  0     0  0
  8 15  1  0     0  0
  8 30  1  0     0  0
  9 11  1  0     0  0
  9 14  2  0     0  0
 10 16  1  0     0  0
 10 27  1  0     0  0
 11 15  2  0     0  0
 12 17  2  0     0  0
 12 20  1  0     0  0
 13 18  2  0     0  0
 13 21  1  0     0  0
 14 31  1  0     0  0
 15 28  1  0     0  0
 16 22  2  0     0  0
 16 23  1  0     0  0
 17 18  1  0     0  0
 17 26  1  0     0  0
 18 27  1  0     0  0
 19 24  2  0     0  0
 19 25  1  0     0  0
 19 30  1  0     0  0
 20 21  2  0     0  0
 22 24  1  0     0  0
 23 25  2  0     0  0
 31 32  1  0     0  0
 32 33  1  0     0  0
 33 34  1  0     0  0
M  END
> <standard_type>
pIC50

> <# Confs.>
25

> <canonical_smiles>
ClC(N=C1CCCC)=C(COC)N1CC2=CC=C(NC(C3=C(Cl)C=CC(Cl)=C3C(O)=O)=O)C=C2

> <standard_relation>
=

> <Publication_ID>
nan

> <predicted_activity_value>
6.698970004336019

> <actual_activity_value>
7.376750709602099

> <Compound>
5

> <standard_units>
nM

> hash
7676056760595389010

$$$$
4
XXILIB    08252103513D 0   0.00000     0.00000

 34 36  0     1  0            999 V2000
    5.0279   -1.4577    0.0746 Cl  0  0  0  0  0  1           0  0  0
   -4.3868    2.8402    9.6528 Cl  0  0  0  0  0  1           0  0  0
   -2.7450   -2.9454    7.9258 Cl  0  0  0  0  0  1           0  0  0
   -2.9763    2.7733    6.3937 O   0  0  0  0  0  2           0  0  0
   -3.7638   -1.4981    5.3807 O   0  0  0  0  0  2           0  0  0
    1.5628   -2.8794   -1.3632 O   0  0  0  0  0  2           0  0  0
   -5.1465    2.1363    6.2459 O   0  0  0  0  0  2           0  0  0
    1.4530   -0.0000   -0.0000 N   0  0  0  0  0  3           0  0  0
    3.5346    0.7633    0.0226 N   0  0  0  0  0  3           0  0  0
   -2.0717    0.0855    5.3315 N   0  0  0  0  0  3           0  0  0
    3.5489   -0.6082    0.0290 C   0  0  0  0  0  4           0  0  0
   -3.9228    1.2663    9.1073 C   0  0  0  0  0  4           0  0  0
   -3.2090   -1.3298    8.3298 C   0  0  0  0  0  4           0  0  0
    2.2664    1.1151    0.0000 C   0  0  0  0  0  4           0  0  0
    2.2632   -1.1242    0.0006 C   0  0  0  0  0  4           0  0  0
   -1.5848    0.0311    4.0103 C   0  0  0  0  0  4           0  0  0
   -3.7125    0.9771    7.7515 C   0  0  0  0  0  4           0  0  0
   -3.3412   -0.3240    7.3609 C   0  0  0  0  0  4           0  0  0
   -0.5412    0.0000    1.3968 C   0  0  0  0  0  4           0  0  0
   -3.7793    0.2600   10.0649 C   0  0  0  0  0  4           0  0  0
   -3.4275   -1.0334    9.6774 C   0  0  0  0  0  4           0  0  0
   -2.1115   -0.8415    3.0525 C   0  0  0  0  0  4           0  0  0
   -0.5384    0.8889    3.6576 C   0  0  0  0  0  4           0  0  0
   -1.5940   -0.8526    1.7540 C   0  0  0  0  0  4           0  0  0
   -0.0218    0.8739    2.3600 C   0  0  0  0  0  4           0  0  0
   -3.8910    2.0412    6.7424 C   0  0  0  0  0  4           0  0  0
   -3.0836   -0.6375    5.9350 C   0  0  0  0  0  4           0  0  0
    1.7131   -2.4985   -0.0017 C   0  0  0  0  0  4           0  0  0
    1.0366   -4.1944   -1.4829 C   0  0  0  0  0  4           0  0  0
    0.0000    0.0000    0.0000 C   0  0  0  0  0  4           0  0  0
    1.7824    2.5210   -0.0190 C   0  0  0  0  0  4           0  0  0
    1.6111    3.0571   -1.4371 C   0  0  0  0  0  4           0  0  0
    1.1145    4.5010   -1.5154 C   0  0  0  0  0  4           0  0  0
   -0.2429    4.6998   -0.8574 C   0  0  0  0  0  4           0  0  0
  1 11  1  0     0  0
  2 12  1  0     0  0
  3 13  1  0     0  0
  4 26  2  0     0  0
  5 27  2  0     0  0
  6 28  1  0     0  0
  6 29  1  0     0  0
  7 26  1  0     0  0
  8 14  1  0     0  0
  8 15  1  0     0  0
  8 30  1  0     0  0
  9 11  1  0     0  0
  9 14  2  0     0  0
 10 16  1  0     0  0
 10 27  1  0     0  0
 11 15  2  0     0  0
 12 17  2  0     0  0
 12 20  1  0     0  0
 13 18  2  0     0  0
 13 21  1  0     0  0
 14 31  1  0     0  0
 15 28  1  0     0  0
 16 22  2  0     0  0
 16 23  1  0     0  0
 17 18  1  0     0  0
 17 26  1  0     0  0
 18 27  1  0     0  0
 19 24  2  0     0  0
 19 25  1  0     0  0
 19 30  1  0     0  0
 20 21  2  0     0  0
 22 24  1  0     0  0
 23 25  2  0     0  0
 31 32  1  0     0  0
 32 33  1  0     0  0
 33 34  1  0     0  0
M  END
> <standard_type>
pIC50

> <# Confs.>
25

> <canonical_smiles>
ClC(N=C1CCCC)=C(COC)N1CC2=CC=C(NC(C3=C(Cl)C=CC(Cl)=C3C(O)=O)=O)C=C2

> <standard_relation>
=

> <Publication_ID>
nan

> <predicted_activity_value>
6.698970004336019

> <actual_activity_value>
7.376750709602099

> <Compound>
5

> <standard_units>
nM

> hash
7676056760595389010

$$$$
4
XXILIB    08252103513D 0   0.00000     0.00000

 34 36  0     1  0            999 V2000
    5.0279   -1.4577    0.0746 Cl  0  0  0  0  0  1           0  0  0
   -3.3575   -2.1956   10.9462 Cl  0  0  0  0  0  1           0  0  0
   -3.8975    2.2490    6.5753 Cl  0  0  0  0  0  1           0  0  0
   -1.6165   -3.0245    7.9617 O   0  0  0  0  0  2           0  0  0
   -3.7638   -1.4981    5.3807 O   0  0  0  0  0  2           0  0  0
    1.5628   -2.8794   -1.3632 O   0  0  0  0  0  2           0  0  0
   -3.8070   -3.5271    7.6684 O   0  0  0  0  0  2           0  0  0
    1.4530   -0.0000   -0.0000 N   0  0  0  0  0  3           0  0  0
    3.5346    0.7633    0.0226 N   0  0  0  0  0  3           0  0  0
   -2.0717    0.0855    5.3315 N   0  0  0  0  0  3           0  0  0
    3.5489   -0.6082    0.0290 C   0  0  0  0  0  4           0  0  0
   -3.4954   -1.0186    9.6870 C   0  0  0  0  0  4           0  0  0
   -3.7153    0.9764    7.7312 C   0  0  0  0  0  4           0  0  0
    2.2664    1.1151    0.0000 C   0  0  0  0  0  4           0  0  0
    2.2632   -1.1242    0.0006 C   0  0  0  0  0  4           0  0  0
   -1.5848    0.0311    4.0103 C   0  0  0  0  0  4           0  0  0
   -3.2186   -1.3223    8.3465 C   0  0  0  0  0  4           0  0  0
   -3.3412   -0.3240    7.3609 C   0  0  0  0  0  4           0  0  0
   -0.5412    0.0000    1.3968 C   0  0  0  0  0  4           0  0  0
   -3.8764    0.2767   10.0437 C   0  0  0  0  0  4           0  0  0
   -3.9823    1.2709    9.0704 C   0  0  0  0  0  4           0  0  0
   -2.1115   -0.8415    3.0525 C   0  0  0  0  0  4           0  0  0
   -0.5384    0.8889    3.6576 C   0  0  0  0  0  4           0  0  0
   -1.5940   -0.8526    1.7540 C   0  0  0  0  0  4           0  0  0
   -0.0218    0.8739    2.3600 C   0  0  0  0  0  4           0  0  0
   -2.7917   -2.6887    7.9812 C   0  0  0  0  0  4           0  0  0
   -3.0836   -0.6375    5.9350 C   0  0  0  0  0  4           0  0  0
    1.7131   -2.4985   -0.0017 C   0  0  0  0  0  4           0  0  0
    1.0366   -4.1944   -1.4829 C   0  0  0  0  0  4           0  0  0
    0.0000    0.0000    0.0000 C   0  0  0  0  0  4           0  0  0
    1.7824    2.5210   -0.0190 C   0  0  0  0  0  4           0  0  0
    2.5241    3.4040    0.9801 C   0  0  0  0  0  4           0  0  0
    2.0655    4.8625    1.0025 C   0  0  0  0  0  4           0  0  0
    2.8277    5.7103    2.0101 C   0  0  0  0  0  4           0  0  0
  1 11  1  0     0  0
  2 12  1  0     0  0
  3 13  1  0     0  0
  4 26  2  0     0  0
  5 27  2  0     0  0
  6 28  1  0     0  0
  6 29  1  0     0  0
  7 26  1  0     0  0
  8 14  1  0     0  0
  8 15  1  0     0  0
  8 30  1  0     0  0
  9 11  1  0     0  0
  9 14  2  0     0  0
 10 16  1  0     0  0
 10 27  1  0     0  0
 11 15  2  0     0  0
 12 17  2  0     0  0
 12 20  1  0     0  0
 13 18  2  0     0  0
 13 21  1  0     0  0
 14 31  1  0     0  0
 15 28  1  0     0  0
 16 22  2  0     0  0
 16 23  1  0     0  0
 17 18  1  0     0  0
 17 26  1  0     0  0
 18 27  1  0     0  0
 19 24  2  0     0  0
 19 25  1  0     0  0
 19 30  1  0     0  0
 20 21  2  0     0  0
 22 24  1  0     0  0
 23 25  2  0     0  0
 31 32  1  0     0  0
 32 33  1  0     0  0
 33 34  1  0     0  0
M  END
> <standard_type>
pIC50

> <# Confs.>
25

> <canonical_smiles>
ClC(N=C1CCCC)=C(COC)N1CC2=CC=C(NC(C3=C(Cl)C=CC(Cl)=C3C(O)=O)=O)C=C2

> <standard_relation>
=

> <Publication_ID>
nan

> <predicted_activity_value>
6.698970004336019

> <actual_activity_value>
7.376750709602099

> <Compound>
5

> <standard_units>
nM

> hash
7676056760595389010

$$$$
4
XXILIB    08252103513D 0   0.00000     0.00000

 34 36  0     1  0            999 V2000
    5.0279    1.4577   -0.0746 Cl  0  0  0  0  0  1           0  0  0
   -6.4728   -0.6030    8.8446 Cl  0  0  0  0  0  1           0  0  0
   -0.2819    0.3039    8.8802 Cl  0  0  0  0  0  1           0  0  0
   -5.1284   -0.4653    5.5599 O   0  0  0  0  0  2           0  0  0
   -0.9071   -1.5656    6.4876 O   0  0  0  0  0  2           0  0  0
    1.5574    2.8818   -1.3585 O   0  0  0  0  0  2           0  0  0
   -4.7679   -2.5423    6.3926 O   0  0  0  0  0  2           0  0  0
    1.4530    0.0000    0.0000 N   0  0  0  0  0  3           0  0  0
    3.5346   -0.7633   -0.0226 N   0  0  0  0  0  3           0  0  0
   -2.1462   -0.0055    5.3027 N   0  0  0  0  0  3           0  0  0
    3.5489    0.6082   -0.0290 C   0  0  0  0  0  4           0  0  0
   -4.7609   -0.3675    8.7826 C   0  0  0  0  0  4           0  0  0
   -1.9850    0.0172    8.8041 C   0  0  0  0  0  4           0  0  0
    2.2664   -1.1151    0.0000 C   0  0  0  0  0  4           0  0  0
    2.2632    1.1242   -0.0006 C   0  0  0  0  0  4           0  0  0
   -1.5869   -0.0289    4.0095 C   0  0  0  0  0  4           0  0  0
   -4.0070   -0.6612    7.6374 C   0  0  0  0  0  4           0  0  0
   -2.6138   -0.4561    7.6428 C   0  0  0  0  0  4           0  0  0
   -0.5412    0.0000    1.3968 C   0  0  0  0  0  4           0  0  0
   -4.1264    0.1123    9.9303 C   0  0  0  0  0  4           0  0  0
   -2.7439    0.3004    9.9423 C   0  0  0  0  0  4           0  0  0
   -0.5193   -0.8661    3.6694 C   0  0  0  0  0  4           0  0  0
   -2.1314    0.8194    3.0404 C   0  0  0  0  0  4           0  0  0
   -0.0039   -0.8526    2.3701 C   0  0  0  0  0  4           0  0  0
   -1.6127    0.8323    1.7436 C   0  0  0  0  0  4           0  0  0
   -4.6826   -1.1923    6.4357 C   0  0  0  0  0  4           0  0  0
   -1.8074   -0.7311    6.4295 C   0  0  0  0  0  4           0  0  0
    1.7131    2.4985    0.0017 C   0  0  0  0  0  4           0  0  0
    1.0308    4.1970   -1.4739 C   0  0  0  0  0  4           0  0  0
    0.0000    0.0000    0.0000 C   0  0  0  0  0  4           0  0  0
    1.7824   -2.5210    0.0190 C   0  0  0  0  0  4           0  0  0
    2.5241   -3.4040   -0.9801 C   0  0  0  0  0  4           0  0  0
    2.0655   -4.8625   -1.0025 C   0  0  0  0  0  4           0  0  0
    2.8277   -5.7103   -2.0101 C   0  0  0  0  0  4           0  0  0
  1 11  1  0     0  0
  2 12  1  0     0  0
  3 13  1  0     0  0
  4 26  2  0     0  0
  5 27  2  0     0  0
  6 28  1  0     0  0
  6 29  1  0     0  0
  7 26  1  0     0  0
  8 14  1  0     0  0
  8 15  1  0     0  0
  8 30  1  0     0  0
  9 11  1  0     0  0
  9 14  2  0     0  0
 10 16  1  0     0  0
 10 27  1  0     0  0
 11 15  2  0     0  0
 12 17  2  0     0  0
 12 20  1  0     0  0
 13 18  2  0     0  0
 13 21  1  0     0  0
 14 31  1  0     0  0
 15 28  1  0     0  0
 16 22  2  0     0  0
 16 23  1  0     0  0
 17 18  1  0     0  0
 17 26  1  0     0  0
 18 27  1  0     0  0
 19 24  2  0     0  0
 19 25  1  0     0  0
 19 30  1  0     0  0
 20 21  2  0     0  0
 22 24  1  0     0  0
 23 25  2  0     0  0
 31 32  1  0     0  0
 32 33  1  0     0  0
 33 34  1  0     0  0
M  END
> <standard_type>
pIC50

> <# Confs.>
25

> <canonical_smiles>
ClC(N=C1CCCC)=C(COC)N1CC2=CC=C(NC(C3=C(Cl)C=CC(Cl)=C3C(O)=O)=O)C=C2

> <standard_relation>
=

> <Publication_ID>
nan

> <predicted_activity_value>
6.698970004336019

> <actual_activity_value>
7.376750709602099

> <Compound>
5

> <standard_units>
nM

> hash
7676056760595389010

$$$$
4
XXILIB    08252103513D 0   0.00000     0.00000

 34 36  0     1  0            999 V2000
    5.0279   -1.4577    0.0746 Cl  0  0  0  0  0  1           0  0  0
   -6.0069   -1.7596    9.4164 Cl  0  0  0  0  0  1           0  0  0
   -0.7822    1.4899    8.2789 Cl  0  0  0  0  0  1           0  0  0
   -5.2927   -2.2497    6.4106 O   0  0  0  0  0  2           0  0  0
   -0.9071   -1.5656    6.4876 O   0  0  0  0  0  2           0  0  0
    1.5628   -2.8794   -1.3632 O   0  0  0  0  0  2           0  0  0
   -3.3208   -3.2745    6.8565 O   0  0  0  0  0  2           0  0  0
    1.4530   -0.0000   -0.0000 N   0  0  0  0  0  3           0  0  0
    3.5346    0.7633    0.0226 N   0  0  0  0  0  3           0  0  0
   -2.1462   -0.0055    5.3027 N   0  0  0  0  0  3           0  0  0
    3.5489   -0.6082    0.0290 C   0  0  0  0  0  4           0  0  0
   -4.5581   -0.8954    9.0370 C   0  0  0  0  0  4           0  0  0
   -2.2060    0.5442    8.5378 C   0  0  0  0  0  4           0  0  0
    2.2664    1.1151    0.0000 C   0  0  0  0  0  4           0  0  0
    2.2632   -1.1242    0.0006 C   0  0  0  0  0  4           0  0  0
   -1.5869   -0.0289    4.0095 C   0  0  0  0  0  4           0  0  0
   -3.7891   -1.1875    7.9015 C   0  0  0  0  0  4           0  0  0
   -2.6138   -0.4561    7.6428 C   0  0  0  0  0  4           0  0  0
   -0.5412    0.0000    1.3968 C   0  0  0  0  0  4           0  0  0
   -4.1483    0.1089    9.9166 C   0  0  0  0  0  4           0  0  0
   -2.9753    0.8232    9.6700 C   0  0  0  0  0  4           0  0  0
   -0.5193   -0.8661    3.6694 C   0  0  0  0  0  4           0  0  0
   -2.1314    0.8194    3.0404 C   0  0  0  0  0  4           0  0  0
   -0.0039   -0.8526    2.3701 C   0  0  0  0  0  4           0  0  0
   -1.6127    0.8323    1.7436 C   0  0  0  0  0  4           0  0  0
   -4.2162   -2.2684    6.9896 C   0  0  0  0  0  4           0  0  0
   -1.8074   -0.7311    6.4295 C   0  0  0  0  0  4           0  0  0
    1.7131   -2.4985   -0.0017 C   0  0  0  0  0  4           0  0  0
    1.0366   -4.1944   -1.4829 C   0  0  0  0  0  4           0  0  0
    0.0000    0.0000    0.0000 C   0  0  0  0  0  4           0  0  0
    1.7824    2.5210   -0.0190 C   0  0  0  0  0  4           0  0  0
    1.6111    3.0571   -1.4371 C   0  0  0  0  0  4           0  0  0
    1.1145    4.5010   -1.5154 C   0  0  0  0  0  4           0  0  0
    0.9563    4.9991   -2.9443 C   0  0  0  0  0  4           0  0  0
  1 11  1  0     0  0
  2 12  1  0     0  0
  3 13  1  0     0  0
  4 26  2  0     0  0
  5 27  2  0     0  0
  6 28  1  0     0  0
  6 29  1  0     0  0
  7 26  1  0     0  0
  8 14  1  0     0  0
  8 15  1  0     0  0
  8 30  1  0     0  0
  9 11  1  0     0  0
  9 14  2  0     0  0
 10 16  1  0     0  0
 10 27  1  0     0  0
 11 15  2  0     0  0
 12 17  2  0     0  0
 12 20  1  0     0  0
 13 18  2  0     0  0
 13 21  1  0     0  0
 14 31  1  0     0  0
 15 28  1  0     0  0
 16 22  2  0     0  0
 16 23  1  0     0  0
 17 18  1  0     0  0
 17 26  1  0     0  0
 18 27  1  0     0  0
 19 24  2  0     0  0
 19 25  1  0     0  0
 19 30  1  0     0  0
 20 21  2  0     0  0
 22 24  1  0     0  0
 23 25  2  0     0  0
 31 32  1  0     0  0
 32 33  1  0     0  0
 33 34  1  0     0  0
M  END
> <standard_type>
pIC50

> <# Confs.>
25

> <canonical_smiles>
ClC(N=C1CCCC)=C(COC)N1CC2=CC=C(NC(C3=C(Cl)C=CC(Cl)=C3C(O)=O)=O)C=C2

> <standard_relation>
=

> <Publication_ID>
nan

> <predicted_activity_value>
6.698970004336019

> <actual_activity_value>
7.376750709602099

> <Compound>
5

> <standard_units>
nM

> hash
7676056760595389010

$$$$
4
XXILIB    08252103513D 0   0.00000     0.00000

 34 36  0     1  0            999 V2000
    5.0279    1.4577   -0.0746 Cl  0  0  0  0  0  1           0  0  0
   -6.4728   -0.6030    8.8446 Cl  0  0  0  0  0  1           0  0  0
   -0.2819    0.3039    8.8802 Cl  0  0  0  0  0  1           0  0  0
   -5.1284   -0.4653    5.5599 O   0  0  0  0  0  2           0  0  0
   -0.9071   -1.5656    6.4876 O   0  0  0  0  0  2           0  0  0
    1.5574    2.8818   -1.3585 O   0  0  0  0  0  2           0  0  0
   -4.7679   -2.5423    6.3926 O   0  0  0  0  0  2           0  0  0
    1.4530    0.0000    0.0000 N   0  0  0  0  0  3           0  0  0
    3.5346   -0.7633   -0.0226 N   0  0  0  0  0  3           0  0  0
   -2.1462   -0.0055    5.3027 N   0  0  0  0  0  3           0  0  0
    3.5489    0.6082   -0.0290 C   0  0  0  0  0  4           0  0  0
   -4.7609   -0.3675    8.7826 C   0  0  0  0  0  4           0  0  0
   -1.9850    0.0172    8.8041 C   0  0  0  0  0  4           0  0  0
    2.2664   -1.1151    0.0000 C   0  0  0  0  0  4           0  0  0
    2.2632    1.1242   -0.0006 C   0  0  0  0  0  4           0  0  0
   -1.5869   -0.0289    4.0095 C   0  0  0  0  0  4           0  0  0
   -4.0070   -0.6612    7.6374 C   0  0  0  0  0  4           0  0  0
   -2.6138   -0.4561    7.6428 C   0  0  0  0  0  4           0  0  0
   -0.5412    0.0000    1.3968 C   0  0  0  0  0  4           0  0  0
   -4.1264    0.1123    9.9303 C   0  0  0  0  0  4           0  0  0
   -2.7439    0.3004    9.9423 C   0  0  0  0  0  4           0  0  0
   -0.5193   -0.8661    3.6694 C   0  0  0  0  0  4           0  0  0
   -2.1314    0.8194    3.0404 C   0  0  0  0  0  4           0  0  0
   -0.0039   -0.8526    2.3701 C   0  0  0  0  0  4           0  0  0
   -1.6127    0.8323    1.7436 C   0  0  0  0  0  4           0  0  0
   -4.6826   -1.1923    6.4357 C   0  0  0  0  0  4           0  0  0
   -1.8074   -0.7311    6.4295 C   0  0  0  0  0  4           0  0  0
    1.7131    2.4985    0.0017 C   0  0  0  0  0  4           0  0  0
    1.0308    4.1970   -1.4739 C   0  0  0  0  0  4           0  0  0
    0.0000    0.0000    0.0000 C   0  0  0  0  0  4           0  0  0
    1.7824   -2.5210    0.0190 C   0  0  0  0  0  4           0  0  0
    2.5491   -3.3857    1.0151 C   0  0  0  0  0  4           0  0  0
    2.0916   -4.8434    1.0757 C   0  0  0  0  0  4           0  0  0
    2.8791   -5.6728    2.0792 C   0  0  0  0  0  4           0  0  0
  1 11  1  0     0  0
  2 12  1  0     0  0
  3 13  1  0     0  0
  4 26  2  0     0  0
  5 27  2  0     0  0
  6 28  1  0     0  0
  6 29  1  0     0  0
  7 26  1  0     0  0
  8 14  1  0     0  0
  8 15  1  0     0  0
  8 30  1  0     0  0
  9 11  1  0     0  0
  9 14  2  0     0  0
 10 16  1  0     0  0
 10 27  1  0     0  0
 11 15  2  0     0  0
 12 17  2  0     0  0
 12 20  1  0     0  0
 13 18  2  0     0  0
 13 21  1  0     0  0
 14 31  1  0     0  0
 15 28  1  0     0  0
 16 22  2  0     0  0
 16 23  1  0     0  0
 17 18  1  0     0  0
 17 26  1  0     0  0
 18 27  1  0     0  0
 19 24  2  0     0  0
 19 25  1  0     0  0
 19 30  1  0     0  0
 20 21  2  0     0  0
 22 24  1  0     0  0
 23 25  2  0     0  0
 31 32  1  0     0  0
 32 33  1  0     0  0
 33 34  1  0     0  0
M  END
> <standard_type>
pIC50

> <# Confs.>
25

> <canonical_smiles>
ClC(N=C1CCCC)=C(COC)N1CC2=CC=C(NC(C3=C(Cl)C=CC(Cl)=C3C(O)=O)=O)C=C2

> <standard_relation>
=

> <Publication_ID>
nan

> <predicted_activity_value>
6.698970004336019

> <actual_activity_value>
7.376750709602099

> <Compound>
5

> <standard_units>
nM

> hash
7676056760595389010

$$$$
4
XXILIB    08252103513D 0   0.00000     0.00000

 34 36  0     1  0            999 V2000
    5.0279   -1.4577    0.0746 Cl  0  0  0  0  0  1           0  0  0
   -6.0069   -1.7596    9.4164 Cl  0  0  0  0  0  1           0  0  0
   -0.7822    1.4899    8.2789 Cl  0  0  0  0  0  1           0  0  0
   -5.2927   -2.2497    6.4106 O   0  0  0  0  0  2           0  0  0
   -0.9071   -1.5656    6.4876 O   0  0  0  0  0  2           0  0  0
    1.5628   -2.8794   -1.3632 O   0  0  0  0  0  2           0  0  0
   -3.3208   -3.2745    6.8565 O   0  0  0  0  0  2           0  0  0
    1.4530   -0.0000   -0.0000 N   0  0  0  0  0  3           0  0  0
    3.5346    0.7633    0.0226 N   0  0  0  0  0  3           0  0  0
   -2.1462   -0.0055    5.3027 N   0  0  0  0  0  3           0  0  0
    3.5489   -0.6082    0.0290 C   0  0  0  0  0  4           0  0  0
   -4.5581   -0.8954    9.0370 C   0  0  0  0  0  4           0  0  0
   -2.2060    0.5442    8.5378 C   0  0  0  0  0  4           0  0  0
    2.2664    1.1151    0.0000 C   0  0  0  0  0  4           0  0  0
    2.2632   -1.1242    0.0006 C   0  0  0  0  0  4           0  0  0
   -1.5869   -0.0289    4.0095 C   0  0  0  0  0  4           0  0  0
   -3.7891   -1.1875    7.9015 C   0  0  0  0  0  4           0  0  0
   -2.6138   -0.4561    7.6428 C   0  0  0  0  0  4           0  0  0
   -0.5412    0.0000    1.3968 C   0  0  0  0  0  4           0  0  0
   -4.1483    0.1089    9.9166 C   0  0  0  0  0  4           0  0  0
   -2.9753    0.8232    9.6700 C   0  0  0  0  0  4           0  0  0
   -0.5193   -0.8661    3.6694 C   0  0  0  0  0  4           0  0  0
   -2.1314    0.8194    3.0404 C   0  0  0  0  0  4           0  0  0
   -0.0039   -0.8526    2.3701 C   0  0  0  0  0  4           0  0  0
   -1.6127    0.8323    1.7436 C   0  0  0  0  0  4           0  0  0
   -4.2162   -2.2684    6.9896 C   0  0  0  0  0  4           0  0  0
   -1.8074   -0.7311    6.4295 C   0  0  0  0  0  4           0  0  0
    1.7131   -2.4985   -0.0017 C   0  0  0  0  0  4           0  0  0
    1.0366   -4.1944   -1.4829 C   0  0  0  0  0  4           0  0  0
    0.0000    0.0000    0.0000 C   0  0  0  0  0  4           0  0  0
    1.7824    2.5210   -0.0190 C   0  0  0  0  0  4           0  0  0
    1.5756    3.0829    1.3844 C   0  0  0  0  0  4           0  0  0
    1.0775    4.5280    1.4237 C   0  0  0  0  0  4           0  0  0
    0.8837    5.0521    2.8388 C   0  0  0  0  0  4           0  0  0
  1 11  1  0     0  0
  2 12  1  0     0  0
  3 13  1  0     0  0
  4 26  2  0     0  0
  5 27  2  0     0  0
  6 28  1  0     0  0
  6 29  1  0     0  0
  7 26  1  0     0  0
  8 14  1  0     0  0
  8 15  1  0     0  0
  8 30  1  0     0  0
  9 11  1  0     0  0
  9 14  2  0     0  0
 10 16  1  0     0  0
 10 27  1  0     0  0
 11 15  2  0     0  0
 12 17  2  0     0  0
 12 20  1  0     0  0
 13 18  2  0     0  0
 13 21  1  0     0  0
 14 31  1  0     0  0
 15 28  1  0     0  0
 16 22  2  0     0  0
 16 23  1  0     0  0
 17 18  1  0     0  0
 17 26  1  0     0  0
 18 27  1  0     0  0
 19 24  2  0     0  0
 19 25  1  0     0  0
 19 30  1  0     0  0
 20 21  2  0     0  0
 22 24  1  0     0  0
 23 25  2  0     0  0
 31 32  1  0     0  0
 32 33  1  0     0  0
 33 34  1  0     0  0
M  END
> <standard_type>
pIC50

> <# Confs.>
25

> <canonical_smiles>
ClC(N=C1CCCC)=C(COC)N1CC2=CC=C(NC(C3=C(Cl)C=CC(Cl)=C3C(O)=O)=O)C=C2

> <standard_relation>
=

> <Publication_ID>
nan

> <predicted_activity_value>
6.698970004336019

> <actual_activity_value>
7.376750709602099

> <Compound>
5

> <standard_units>
nM

> hash
7676056760595389010

$$$$
4
XXILIB    08252103513D 0   0.00000     0.00000

 34 36  0     1  0            999 V2000
    5.0279    1.4577   -0.0746 Cl  0  0  0  0  0  1           0  0  0
   -5.5970    2.1991    9.5752 Cl  0  0  0  0  0  1           0  0  0
   -1.5018   -2.2617    8.0000 Cl  0  0  0  0  0  1           0  0  0
   -4.9482    2.6191    6.5441 O   0  0  0  0  0  2           0  0  0
   -3.7638   -1.4981    5.3807 O   0  0  0  0  0  2           0  0  0
    1.5574    2.8818   -1.3585 O   0  0  0  0  0  2           0  0  0
   -5.7966    0.6194    5.8972 O   0  0  0  0  0  2           0  0  0
    1.4530    0.0000    0.0000 N   0  0  0  0  0  3           0  0  0
    3.5346   -0.7633   -0.0226 N   0  0  0  0  0  3           0  0  0
   -2.0717    0.0855    5.3315 N   0  0  0  0  0  3           0  0  0
    3.5489    0.6082   -0.0290 C   0  0  0  0  0  4           0  0  0
   -4.4743    0.9853    9.0694 C   0  0  0  0  0  4           0  0  0
   -2.6568   -1.0276    8.3632 C   0  0  0  0  0  4           0  0  0
    2.2664   -1.1151    0.0000 C   0  0  0  0  0  4           0  0  0
    2.2632    1.1242   -0.0006 C   0  0  0  0  0  4           0  0  0
   -1.5848    0.0311    4.0103 C   0  0  0  0  0  4           0  0  0
   -4.2638    0.6784    7.7176 C   0  0  0  0  0  4           0  0  0
   -3.3412   -0.3240    7.3609 C   0  0  0  0  0  4           0  0  0
   -0.5412    0.0000    1.3968 C   0  0  0  0  0  4           0  0  0
   -3.7806    0.2854   10.0590 C   0  0  0  0  0  4           0  0  0
   -2.8785   -0.7193    9.7075 C   0  0  0  0  0  4           0  0  0
   -2.1115   -0.8415    3.0525 C   0  0  0  0  0  4           0  0  0
   -0.5384    0.8889    3.6576 C   0  0  0  0  0  4           0  0  0
   -1.5940   -0.8526    1.7540 C   0  0  0  0  0  4           0  0  0
   -0.0218    0.8739    2.3600 C   0  0  0  0  0  4           0  0  0
   -5.0202    1.4062    6.6781 C   0  0  0  0  0  4           0  0  0
   -3.0836   -0.6375    5.9350 C   0  0  0  0  0  4           0  0  0
    1.7131    2.4985    0.0017 C   0  0  0  0  0  4           0  0  0
    1.0308    4.1970   -1.4739 C   0  0  0  0  0  4           0  0  0
    0.0000    0.0000    0.0000 C   0  0  0  0  0  4           0  0  0
    1.7824   -2.5210    0.0190 C   0  0  0  0  0  4           0  0  0
    1.5756   -3.0829   -1.3844 C   0  0  0  0  0  4           0  0  0
    1.0775   -4.5280   -1.4237 C   0  0  0  0  0  4           0  0  0
    0.8837   -5.0521   -2.8388 C   0  0  0  0  0  4           0  0  0
  1 11  1  0     0  0
  2 12  1  0     0  0
  3 13  1  0     0  0
  4 26  2  0     0  0
  5 27  2  0     0  0
  6 28  1  0     0  0
  6 29  1  0     0  0
  7 26  1  0     0  0
  8 14  1  0     0  0
  8 15  1  0     0  0
  8 30  1  0     0  0
  9 11  1  0     0  0
  9 14  2  0     0  0
 10 16  1  0     0  0
 10 27  1  0     0  0
 11 15  2  0     0  0
 12 17  2  0     0  0
 12 20  1  0     0  0
 13 18  2  0     0  0
 13 21  1  0     0  0
 14 31  1  0     0  0
 15 28  1  0     0  0
 16 22  2  0     0  0
 16 23  1  0     0  0
 17 18  1  0     0  0
 17 26  1  0     0  0
 18 27  1  0     0  0
 19 24  2  0     0  0
 19 25  1  0     0  0
 19 30  1  0     0  0
 20 21  2  0     0  0
 22 24  1  0     0  0
 23 25  2  0     0  0
 31 32  1  0     0  0
 32 33  1  0     0  0
 33 34  1  0     0  0
M  END
> <standard_type>
pIC50

> <# Confs.>
25

> <canonical_smiles>
ClC(N=C1CCCC)=C(COC)N1CC2=CC=C(NC(C3=C(Cl)C=CC(Cl)=C3C(O)=O)=O)C=C2

> <standard_relation>
=

> <Publication_ID>
nan

> <predicted_activity_value>
6.698970004336019

> <actual_activity_value>
7.376750709602099

> <Compound>
5

> <standard_units>
nM

> hash
7676056760595389010

$$$$
4
XXILIB    08252103513D 0   0.00000     0.00000

 34 36  0     1  0            999 V2000
    5.0279   -1.4577    0.0746 Cl  0  0  0  0  0  1           0  0  0
   -6.0069   -1.7596    9.4164 Cl  0  0  0  0  0  1           0  0  0
   -0.7822    1.4899    8.2789 Cl  0  0  0  0  0  1           0  0  0
   -5.2927   -2.2497    6.4106 O   0  0  0  0  0  2           0  0  0
   -0.9071   -1.5656    6.4876 O   0  0  0  0  0  2           0  0  0
    1.5628   -2.8794   -1.3632 O   0  0  0  0  0  2           0  0  0
   -3.3208   -3.2745    6.8565 O   0  0  0  0  0  2           0  0  0
    1.4530   -0.0000   -0.0000 N   0  0  0  0  0  3           0  0  0
    3.5346    0.7633    0.0226 N   0  0  0  0  0  3           0  0  0
   -2.1462   -0.0055    5.3027 N   0  0  0  0  0  3           0  0  0
    3.5489   -0.6082    0.0290 C   0  0  0  0  0  4           0  0  0
   -4.5581   -0.8954    9.0370 C   0  0  0  0  0  4           0  0  0
   -2.2060    0.5442    8.5378 C   0  0  0  0  0  4           0  0  0
    2.2664    1.1151    0.0000 C   0  0  0  0  0  4           0  0  0
    2.2632   -1.1242    0.0006 C   0  0  0  0  0  4           0  0  0
   -1.5869   -0.0289    4.0095 C   0  0  0  0  0  4           0  0  0
   -3.7891   -1.1875    7.9015 C   0  0  0  0  0  4           0  0  0
   -2.6138   -0.4561    7.6428 C   0  0  0  0  0  4           0  0  0
   -0.5412    0.0000    1.3968 C   0  0  0  0  0  4           0  0  0
   -4.1483    0.1089    9.9166 C   0  0  0  0  0  4           0  0  0
   -2.9753    0.8232    9.6700 C   0  0  0  0  0  4           0  0  0
   -0.5193   -0.8661    3.6694 C   0  0  0  0  0  4           0  0  0
   -2.1314    0.8194    3.0404 C   0  0  0  0  0  4           0  0  0
   -0.0039   -0.8526    2.3701 C   0  0  0  0  0  4           0  0  0
   -1.6127    0.8323    1.7436 C   0  0  0  0  0  4           0  0  0
   -4.2162   -2.2684    6.9896 C   0  0  0  0  0  4           0  0  0
   -1.8074   -0.7311    6.4295 C   0  0  0  0  0  4           0  0  0
    1.7131   -2.4985   -0.0017 C   0  0  0  0  0  4           0  0  0
    1.0366   -4.1944   -1.4829 C   0  0  0  0  0  4           0  0  0
    0.0000    0.0000    0.0000 C   0  0  0  0  0  4           0  0  0
    1.7824    2.5210   -0.0190 C   0  0  0  0  0  4           0  0  0
    1.6111    3.0571   -1.4371 C   0  0  0  0  0  4           0  0  0
    2.8908    3.0623   -2.2738 C   0  0  0  0  0  4           0  0  0
    2.6799    3.6032   -3.6802 C   0  0  0  0  0  4           0  0  0
  1 11  1  0     0  0
  2 12  1  0     0  0
  3 13  1  0     0  0
  4 26  2  0     0  0
  5 27  2  0     0  0
  6 28  1  0     0  0
  6 29  1  0     0  0
  7 26  1  0     0  0
  8 14  1  0     0  0
  8 15  1  0     0  0
  8 30  1  0     0  0
  9 11  1  0     0  0
  9 14  2  0     0  0
 10 16  1  0     0  0
 10 27  1  0     0  0
 11 15  2  0     0  0
 12 17  2  0     0  0
 12 20  1  0     0  0
 13 18  2  0     0  0
 13 21  1  0     0  0
 14 31  1  0     0  0
 15 28  1  0     0  0
 16 22  2  0     0  0
 16 23  1  0     0  0
 17 18  1  0     0  0
 17 26  1  0     0  0
 18 27  1  0     0  0
 19 24  2  0     0  0
 19 25  1  0     0  0
 19 30  1  0     0  0
 20 21  2  0     0  0
 22 24  1  0     0  0
 23 25  2  0     0  0
 31 32  1  0     0  0
 32 33  1  0     0  0
 33 34  1  0     0  0
M  END
> <standard_type>
pIC50

> <# Confs.>
25

> <canonical_smiles>
ClC(N=C1CCCC)=C(COC)N1CC2=CC=C(NC(C3=C(Cl)C=CC(Cl)=C3C(O)=O)=O)C=C2

> <standard_relation>
=

> <Publication_ID>
nan

> <predicted_activity_value>
6.698970004336019

> <actual_activity_value>
7.376750709602099

> <Compound>
5

> <standard_units>
nM

> hash
7676056760595389010

$$$$
22
XXILIB    08252103513D 0   0.00000     0.00000

 30 31  0     1  0            999 V2000
   -3.5748    0.0265   -1.4596 Cl  0  0  0  0  0  1           0  0  0
    0.1941    2.3706   -2.3099 O   0  0  0  0  0  2           0  0  0
    5.3537  -10.0523    0.0471 O   0  0  0  0  0  2           0  0  0
    5.2139   -5.3768   -1.5138 O   0  0  0  0  0  2           0  0  0
   -0.2113    1.4000   -4.3592 O   0  0  0  0  0  2           0  0  0
    7.0219  -10.0299   -1.4979 O   0  0  0  0  0  2           0  0  0
    0.0000   -0.0000    0.0000 N   0  0  0  0  0  3           0  0  0
   -2.0822    0.0079    0.7623 N   0  0  0  0  0  3           0  0  0
    3.4961   -5.3416    0.0561 N   0  0  0  0  0  3           0  0  0
   -2.0956    0.0071   -0.6094 C   0  0  0  0  0  4           0  0  0
   -0.8139    0.0000    1.1146 C   0  0  0  0  0  4           0  0  0
   -0.8093   -0.0085   -1.1246 C   0  0  0  0  0  4           0  0  0
    3.0209   -4.0165    0.0152 C   0  0  0  0  0  4           0  0  0
    1.9910   -1.3970    0.0000 C   0  0  0  0  0  4           0  0  0
    1.9625   -3.6692    0.8604 C   0  0  0  0  0  4           0  0  0
    3.5692   -3.0495   -0.8334 C   0  0  0  0  0  4           0  0  0
    1.4527   -2.3689    0.8531 C   0  0  0  0  0  4           0  0  0
    3.0588   -1.7482   -0.8361 C   0  0  0  0  0  4           0  0  0
   -0.0568    1.3933   -3.0026 C   0  0  0  0  0  4           0  0  0
    6.0239   -9.4521   -0.7829 C   0  0  0  0  0  4           0  0  0
    4.5169   -5.9327   -0.6670 C   0  0  0  0  0  4           0  0  0
   -0.0593    2.6768   -4.9878 C   0  0  0  0  0  4           0  0  0
    1.4499   -0.0000   -0.0000 C   0  0  0  0  0  4           0  0  0
   -0.3297   -0.0006    2.5204 C   0  0  0  0  0  4           0  0  0
   -0.2528   -0.0150   -2.5008 C   0  0  0  0  0  4           0  0  0
    5.8340   -8.0027   -1.1299 C   0  0  0  0  0  4           0  0  0
    4.7077   -7.3886   -0.3185 C   0  0  0  0  0  4           0  0  0
   -1.0836    0.9972    3.3942 C   0  0  0  0  0  4           0  0  0
   -0.5939    1.0045    4.8401 C   0  0  0  0  0  4           0  0  0
   -1.3447    1.9990    5.7131 C   0  0  0  0  0  4           0  0  0
  1 10  1  0     0  0
  2 19  2  0     0  0
  3 20  2  0     0  0
  4 21  2  0     0  0
  5 19  1  0     0  0
  5 22  1  0     0  0
  6 20  1  0     0  0
  7 11  1  0     0  0
  7 12  1  0     0  0
  7 23  1  0     0  0
  8 10  1  0     0  0
  8 11  2  0     0  0
  9 13  1  0     0  0
  9 21  1  0     0  0
 10 12  2  0     0  0
 11 24  1  0     0  0
 12 25  1  0     0  0
 13 15  2  0     0  0
 13 16  1  0     0  0
 14 17  2  0     0  0
 14 18  1  0     0  0
 14 23  1  0     0  0
 15 17  1  0     0  0
 16 18  2  0     0  0
 19 25  1  0     0  0
 20 26  1  0     0  0
 21 27  1  0     0  0
 24 28  1  0     0  0
 26 27  1  0     0  0
 28 29  1  0     0  0
 29 30  1  0     0  0
M  END
> <standard_type>
pIC50

> <# Confs.>
25

> <canonical_smiles>
CCCCC1=NC(Cl)=C(CC(OC)=O)N1CC2=CC=C(NC(CCC(O)=O)=O)C=C2

> <standard_relation>
=

> <Publication_ID>
nan

> <predicted_activity_value>
5.0

> <actual_activity_value>
4.337242168318426

> <Compound>
23

> <standard_units>
nM

> hash
17748807188493933904

$$$$
22
XXILIB    08252103513D 0   0.00000     0.00000

 30 31  0     1  0            999 V2000
   -3.5748    0.0265   -1.4596 Cl  0  0  0  0  0  1           0  0  0
    0.1941    2.3706   -2.3099 O   0  0  0  0  0  2           0  0  0
    5.3537  -10.0523    0.0471 O   0  0  0  0  0  2           0  0  0
    5.2139   -5.3768   -1.5138 O   0  0  0  0  0  2           0  0  0
   -0.2113    1.4000   -4.3592 O   0  0  0  0  0  2           0  0  0
    7.0219  -10.0299   -1.4979 O   0  0  0  0  0  2           0  0  0
    0.0000   -0.0000    0.0000 N   0  0  0  0  0  3           0  0  0
   -2.0822    0.0079    0.7623 N   0  0  0  0  0  3           0  0  0
    3.4961   -5.3416    0.0561 N   0  0  0  0  0  3           0  0  0
   -2.0956    0.0071   -0.6094 C   0  0  0  0  0  4           0  0  0
   -0.8139    0.0000    1.1146 C   0  0  0  0  0  4           0  0  0
   -0.8093   -0.0085   -1.1246 C   0  0  0  0  0  4           0  0  0
    3.0209   -4.0165    0.0152 C   0  0  0  0  0  4           0  0  0
    1.9910   -1.3970    0.0000 C   0  0  0  0  0  4           0  0  0
    1.9625   -3.6692    0.8604 C   0  0  0  0  0  4           0  0  0
    3.5692   -3.0495   -0.8334 C   0  0  0  0  0  4           0  0  0
    1.4527   -2.3689    0.8531 C   0  0  0  0  0  4           0  0  0
    3.0588   -1.7482   -0.8361 C   0  0  0  0  0  4           0  0  0
   -0.0568    1.3933   -3.0026 C   0  0  0  0  0  4           0  0  0
    6.0239   -9.4521   -0.7829 C   0  0  0  0  0  4           0  0  0
    4.5169   -5.9327   -0.6670 C   0  0  0  0  0  4           0  0  0
   -0.0593    2.6768   -4.9878 C   0  0  0  0  0  4           0  0  0
    1.4499   -0.0000   -0.0000 C   0  0  0  0  0  4           0  0  0
   -0.3297   -0.0006    2.5204 C   0  0  0  0  0  4           0  0  0
   -0.2528   -0.0150   -2.5008 C   0  0  0  0  0  4           0  0  0
    5.8340   -8.0027   -1.1299 C   0  0  0  0  0  4           0  0  0
    4.7077   -7.3886   -0.3185 C   0  0  0  0  0  4           0  0  0
   -1.0836    0.9972    3.3942 C   0  0  0  0  0  4           0  0  0
   -0.9512    2.4349    2.8984 C   0  0  0  0  0  4           0  0  0
   -1.7025    3.4315    3.7686 C   0  0  0  0  0  4           0  0  0
  1 10  1  0     0  0
  2 19  2  0     0  0
  3 20  2  0     0  0
  4 21  2  0     0  0
  5 19  1  0     0  0
  5 22  1  0     0  0
  6 20  1  0     0  0
  7 11  1  0     0  0
  7 12  1  0     0  0
  7 23  1  0     0  0
  8 10  1  0     0  0
  8 11  2  0     0  0
  9 13  1  0     0  0
  9 21  1  0     0  0
 10 12  2  0     0  0
 11 24  1  0     0  0
 12 25  1  0     0  0
 13 15  2  0     0  0
 13 16  1  0     0  0
 14 17  2  0     0  0
 14 18  1  0     0  0
 14 23  1  0     0  0
 15 17  1  0     0  0
 16 18  2  0     0  0
 19 25  1  0     0  0
 20 26  1  0     0  0
 21 27  1  0     0  0
 24 28  1  0     0  0
 26 27  1  0     0  0
 28 29  1  0     0  0
 29 30  1  0     0  0
M  END
> <standard_type>
pIC50

> <# Confs.>
25

> <canonical_smiles>
CCCCC1=NC(Cl)=C(CC(OC)=O)N1CC2=CC=C(NC(CCC(O)=O)=O)C=C2

> <standard_relation>
=

> <Publication_ID>
nan

> <predicted_activity_value>
5.0

> <actual_activity_value>
4.337242168318426

> <Compound>
23

> <standard_units>
nM

> hash
17748807188493933904

$$$$
22
XXILIB    08252103513D 0   0.00000     0.00000

 30 31  0     1  0            999 V2000
   -3.5748    0.0265   -1.4596 Cl  0  0  0  0  0  1           0  0  0
    0.2063   -2.3958   -2.2827 O   0  0  0  0  0  2           0  0  0
    5.3890   10.0386    0.0093 O   0  0  0  0  0  2           0  0  0
    2.3404    6.4899    1.5678 O   0  0  0  0  0  2           0  0  0
   -0.1927   -1.4488   -4.3441 O   0  0  0  0  0  2           0  0  0
    4.1584   11.1391    1.5729 O   0  0  0  0  0  2           0  0  0
    0.0000   -0.0000    0.0000 N   0  0  0  0  0  3           0  0  0
   -2.0822    0.0079    0.7623 N   0  0  0  0  0  3           0  0  0
    3.5683    5.3136   -0.0214 N   0  0  0  0  0  3           0  0  0
   -2.0956    0.0071   -0.6094 C   0  0  0  0  0  4           0  0  0
   -0.8139    0.0000    1.1146 C   0  0  0  0  0  4           0  0  0
   -0.8093   -0.0085   -1.1246 C   0  0  0  0  0  4           0  0  0
    3.0219    4.0161    0.0141 C   0  0  0  0  0  4           0  0  0
    1.9910    1.3970    0.0000 C   0  0  0  0  0  4           0  0  0
    3.5549    3.0524   -0.8473 C   0  0  0  0  0  4           0  0  0
    1.9764    3.6665    0.8747 C   0  0  0  0  0  4           0  0  0
    3.0436    1.7526   -0.8531 C   0  0  0  0  0  4           0  0  0
    1.4690    2.3640    0.8689 C   0  0  0  0  0  4           0  0  0
   -0.0496   -1.4279   -2.9865 C   0  0  0  0  0  4           0  0  0
    4.5003   10.0423    0.8511 C   0  0  0  0  0  4           0  0  0
    3.2263    6.4326    0.7170 C   0  0  0  0  0  4           0  0  0
   -0.0216   -2.7296   -4.9596 C   0  0  0  0  0  4           0  0  0
    1.4499    0.0000   -0.0000 C   0  0  0  0  0  4           0  0  0
   -0.3297   -0.0006    2.5204 C   0  0  0  0  0  4           0  0  0
   -0.2528   -0.0150   -2.5008 C   0  0  0  0  0  4           0  0  0
    3.6638    8.8434    1.1974 C   0  0  0  0  0  4           0  0  0
    4.0666    7.6369    0.3691 C   0  0  0  0  0  4           0  0  0
   -1.0836    0.9972    3.3942 C   0  0  0  0  0  4           0  0  0
   -0.5939    1.0045    4.8401 C   0  0  0  0  0  4           0  0  0
   -1.3447    1.9990    5.7131 C   0  0  0  0  0  4           0  0  0
  1 10  1  0     0  0
  2 19  2  0     0  0
  3 20  2  0     0  0
  4 21  2  0     0  0
  5 19  1  0     0  0
  5 22  1  0     0  0
  6 20  1  0     0  0
  7 11  1  0     0  0
  7 12  1  0     0  0
  7 23  1  0     0  0
  8 10  1  0     0  0
  8 11  2  0     0  0
  9 13  1  0     0  0
  9 21  1  0     0  0
 10 12  2  0     0  0
 11 24  1  0     0  0
 12 25  1  0     0  0
 13 15  2  0     0  0
 13 16  1  0     0  0
 14 17  2  0     0  0
 14 18  1  0     0  0
 14 23  1  0     0  0
 15 17  1  0     0  0
 16 18  2  0     0  0
 19 25  1  0     0  0
 20 26  1  0     0  0
 21 27  1  0     0  0
 24 28  1  0     0  0
 26 27  1  0     0  0
 28 29  1  0     0  0
 29 30  1  0     0  0
M  END
> <standard_type>
pIC50

> <# Confs.>
25

> <canonical_smiles>
CCCCC1=NC(Cl)=C(CC(OC)=O)N1CC2=CC=C(NC(CCC(O)=O)=O)C=C2

> <standard_relation>
=

> <Publication_ID>
nan

> <predicted_activity_value>
5.0

> <actual_activity_value>
4.337242168318426

> <Compound>
23

> <standard_units>
nM

> hash
17748807188493933904

$$$$
22
XXILIB    08252103513D 0   0.00000     0.00000

 30 31  0     1  0            999 V2000
   -3.5748    0.0265   -1.4596 Cl  0  0  0  0  0  1           0  0  0
    0.1941    2.3706   -2.3099 O   0  0  0  0  0  2           0  0  0
    5.3537  -10.0523    0.0471 O   0  0  0  0  0  2           0  0  0
    5.2139   -5.3768   -1.5138 O   0  0  0  0  0  2           0  0  0
   -0.2113    1.4000   -4.3592 O   0  0  0  0  0  2           0  0  0
    7.0219  -10.0299   -1.4979 O   0  0  0  0  0  2           0  0  0
    0.0000   -0.0000    0.0000 N   0  0  0  0  0  3           0  0  0
   -2.0822    0.0079    0.7623 N   0  0  0  0  0  3           0  0  0
    3.4961   -5.3416    0.0561 N   0  0  0  0  0  3           0  0  0
   -2.0956    0.0071   -0.6094 C   0  0  0  0  0  4           0  0  0
   -0.8139    0.0000    1.1146 C   0  0  0  0  0  4           0  0  0
   -0.8093   -0.0085   -1.1246 C   0  0  0  0  0  4           0  0  0
    3.0209   -4.0165    0.0152 C   0  0  0  0  0  4           0  0  0
    1.9910   -1.3970    0.0000 C   0  0  0  0  0  4           0  0  0
    1.9625   -3.6692    0.8604 C   0  0  0  0  0  4           0  0  0
    3.5692   -3.0495   -0.8334 C   0  0  0  0  0  4           0  0  0
    1.4527   -2.3689    0.8531 C   0  0  0  0  0  4           0  0  0
    3.0588   -1.7482   -0.8361 C   0  0  0  0  0  4           0  0  0
   -0.0568    1.3933   -3.0026 C   0  0  0  0  0  4           0  0  0
    6.0239   -9.4521   -0.7829 C   0  0  0  0  0  4           0  0  0
    4.5169   -5.9327   -0.6670 C   0  0  0  0  0  4           0  0  0
   -0.0593    2.6768   -4.9878 C   0  0  0  0  0  4           0  0  0
    1.4499   -0.0000   -0.0000 C   0  0  0  0  0  4           0  0  0
   -0.3297   -0.0006    2.5204 C   0  0  0  0  0  4           0  0  0
   -0.2528   -0.0150   -2.5008 C   0  0  0  0  0  4           0  0  0
    5.8340   -8.0027   -1.1299 C   0  0  0  0  0  4           0  0  0
    4.7077   -7.3886   -0.3185 C   0  0  0  0  0  4           0  0  0
   -1.0844   -0.9983    3.3936 C   0  0  0  0  0  4           0  0  0
   -0.5947   -1.0068    4.8395 C   0  0  0  0  0  4           0  0  0
   -1.3462   -2.0012    5.7120 C   0  0  0  0  0  4           0  0  0
  1 10  1  0     0  0
  2 19  2  0     0  0
  3 20  2  0     0  0
  4 21  2  0     0  0
  5 19  1  0     0  0
  5 22  1  0     0  0
  6 20  1  0     0  0
  7 11  1  0     0  0
  7 12  1  0     0  0
  7 23  1  0     0  0
  8 10  1  0     0  0
  8 11  2  0     0  0
  9 13  1  0     0  0
  9 21  1  0     0  0
 10 12  2  0     0  0
 11 24  1  0     0  0
 12 25  1  0     0  0
 13 15  2  0     0  0
 13 16  1  0     0  0
 14 17  2  0     0  0
 14 18  1  0     0  0
 14 23  1  0     0  0
 15 17  1  0     0  0
 16 18  2  0     0  0
 19 25  1  0     0  0
 20 26  1  0     0  0
 21 27  1  0     0  0
 24 28  1  0     0  0
 26 27  1  0     0  0
 28 29  1  0     0  0
 29 30  1  0     0  0
M  END
> <standard_type>
pIC50

> <# Confs.>
25

> <canonical_smiles>
CCCCC1=NC(Cl)=C(CC(OC)=O)N1CC2=CC=C(NC(CCC(O)=O)=O)C=C2

> <standard_relation>
=

> <Publication_ID>
nan

> <predicted_activity_value>
5.0

> <actual_activity_value>
4.337242168318426

> <Compound>
23

> <standard_units>
nM

> hash
17748807188493933904

$$$$
22
XXILIB    08252103513D 0   0.00000     0.00000

 30 31  0     1  0            999 V2000
   -3.5748    0.0265   -1.4596 Cl  0  0  0  0  0  1           0  0  0
    0.2063   -2.3958   -2.2827 O   0  0  0  0  0  2           0  0  0
    5.3890   10.0386    0.0093 O   0  0  0  0  0  2           0  0  0
    2.3404    6.4899    1.5678 O   0  0  0  0  0  2           0  0  0
   -0.1927   -1.4488   -4.3441 O   0  0  0  0  0  2           0  0  0
    4.1584   11.1391    1.5729 O   0  0  0  0  0  2           0  0  0
    0.0000   -0.0000    0.0000 N   0  0  0  0  0  3           0  0  0
   -2.0822    0.0079    0.7623 N   0  0  0  0  0  3           0  0  0
    3.5683    5.3136   -0.0214 N   0  0  0  0  0  3           0  0  0
   -2.0956    0.0071   -0.6094 C   0  0  0  0  0  4           0  0  0
   -0.8139    0.0000    1.1146 C   0  0  0  0  0  4           0  0  0
   -0.8093   -0.0085   -1.1246 C   0  0  0  0  0  4           0  0  0
    3.0219    4.0161    0.0141 C   0  0  0  0  0  4           0  0  0
    1.9910    1.3970    0.0000 C   0  0  0  0  0  4           0  0  0
    3.5549    3.0524   -0.8473 C   0  0  0  0  0  4           0  0  0
    1.9764    3.6665    0.8747 C   0  0  0  0  0  4           0  0  0
    3.0436    1.7526   -0.8531 C   0  0  0  0  0  4           0  0  0
    1.4690    2.3640    0.8689 C   0  0  0  0  0  4           0  0  0
   -0.0496   -1.4279   -2.9865 C   0  0  0  0  0  4           0  0  0
    4.5003   10.0423    0.8511 C   0  0  0  0  0  4           0  0  0
    3.2263    6.4326    0.7170 C   0  0  0  0  0  4           0  0  0
   -0.0216   -2.7296   -4.9596 C   0  0  0  0  0  4           0  0  0
    1.4499    0.0000   -0.0000 C   0  0  0  0  0  4           0  0  0
   -0.3297   -0.0006    2.5204 C   0  0  0  0  0  4           0  0  0
   -0.2528   -0.0150   -2.5008 C   0  0  0  0  0  4           0  0  0
    3.6638    8.8434    1.1974 C   0  0  0  0  0  4           0  0  0
    4.0666    7.6369    0.3691 C   0  0  0  0  0  4           0  0  0
   -1.0844   -0.9983    3.3936 C   0  0  0  0  0  4           0  0  0
   -0.5947   -1.0068    4.8395 C   0  0  0  0  0  4           0  0  0
   -1.3462   -2.0012    5.7120 C   0  0  0  0  0  4           0  0  0
  1 10  1  0     0  0
  2 19  2  0     0  0
  3 20  2  0     0  0
  4 21  2  0     0  0
  5 19  1  0     0  0
  5 22  1  0     0  0
  6 20  1  0     0  0
  7 11  1  0     0  0
  7 12  1  0     0  0
  7 23  1  0     0  0
  8 10  1  0     0  0
  8 11  2  0     0  0
  9 13  1  0     0  0
  9 21  1  0     0  0
 10 12  2  0     0  0
 11 24  1  0     0  0
 12 25  1  0     0  0
 13 15  2  0     0  0
 13 16  1  0     0  0
 14 17  2  0     0  0
 14 18  1  0     0  0
 14 23  1  0     0  0
 15 17  1  0     0  0
 16 18  2  0     0  0
 19 25  1  0     0  0
 20 26  1  0     0  0
 21 27  1  0     0  0
 24 28  1  0     0  0
 26 27  1  0     0  0
 28 29  1  0     0  0
 29 30  1  0     0  0
M  END
> <standard_type>
pIC50

> <# Confs.>
25

> <canonical_smiles>
CCCCC1=NC(Cl)=C(CC(OC)=O)N1CC2=CC=C(NC(CCC(O)=O)=O)C=C2

> <standard_relation>
=

> <Publication_ID>
nan

> <predicted_activity_value>
5.0

> <actual_activity_value>
4.337242168318426

> <Compound>
23

> <standard_units>
nM

> hash
17748807188493933904

$$$$
22
XXILIB    08252103513D 0   0.00000     0.00000

 30 31  0     1  0            999 V2000
   -3.5748    0.0265   -1.4596 Cl  0  0  0  0  0  1           0  0  0
    0.2063   -2.3958   -2.2827 O   0  0  0  0  0  2           0  0  0
    5.3890   10.0386    0.0093 O   0  0  0  0  0  2           0  0  0
    2.3404    6.4899    1.5678 O   0  0  0  0  0  2           0  0  0
   -0.1927   -1.4488   -4.3441 O   0  0  0  0  0  2           0  0  0
    4.1584   11.1391    1.5729 O   0  0  0  0  0  2           0  0  0
    0.0000   -0.0000    0.0000 N   0  0  0  0  0  3           0  0  0
   -2.0822    0.0079    0.7623 N   0  0  0  0  0  3           0  0  0
    3.5683    5.3136   -0.0214 N   0  0  0  0  0  3           0  0  0
   -2.0956    0.0071   -0.6094 C   0  0  0  0  0  4           0  0  0
   -0.8139    0.0000    1.1146 C   0  0  0  0  0  4           0  0  0
   -0.8093   -0.0085   -1.1246 C   0  0  0  0  0  4           0  0  0
    3.0219    4.0161    0.0141 C   0  0  0  0  0  4           0  0  0
    1.9910    1.3970    0.0000 C   0  0  0  0  0  4           0  0  0
    3.5549    3.0524   -0.8473 C   0  0  0  0  0  4           0  0  0
    1.9764    3.6665    0.8747 C   0  0  0  0  0  4           0  0  0
    3.0436    1.7526   -0.8531 C   0  0  0  0  0  4           0  0  0
    1.4690    2.3640    0.8689 C   0  0  0  0  0  4           0  0  0
   -0.0496   -1.4279   -2.9865 C   0  0  0  0  0  4           0  0  0
    4.5003   10.0423    0.8511 C   0  0  0  0  0  4           0  0  0
    3.2263    6.4326    0.7170 C   0  0  0  0  0  4           0  0  0
   -0.0216   -2.7296   -4.9596 C   0  0  0  0  0  4           0  0  0
    1.4499    0.0000   -0.0000 C   0  0  0  0  0  4           0  0  0
   -0.3297   -0.0006    2.5204 C   0  0  0  0  0  4           0  0  0
   -0.2528   -0.0150   -2.5008 C   0  0  0  0  0  4           0  0  0
    3.6638    8.8434    1.1974 C   0  0  0  0  0  4           0  0  0
    4.0666    7.6369    0.3691 C   0  0  0  0  0  4           0  0  0
   -1.0844   -0.9983    3.3936 C   0  0  0  0  0  4           0  0  0
   -0.9531   -2.4358    2.8970 C   0  0  0  0  0  4           0  0  0
   -1.7052   -3.4323    3.7666 C   0  0  0  0  0  4           0  0  0
  1 10  1  0     0  0
  2 19  2  0     0  0
  3 20  2  0     0  0
  4 21  2  0     0  0
  5 19  1  0     0  0
  5 22  1  0     0  0
  6 20  1  0     0  0
  7 11  1  0     0  0
  7 12  1  0     0  0
  7 23  1  0     0  0
  8 10  1  0     0  0
  8 11  2  0     0  0
  9 13  1  0     0  0
  9 21  1  0     0  0
 10 12  2  0     0  0
 11 24  1  0     0  0
 12 25  1  0     0  0
 13 15  2  0     0  0
 13 16  1  0     0  0
 14 17  2  0     0  0
 14 18  1  0     0  0
 14 23  1  0     0  0
 15 17  1  0     0  0
 16 18  2  0     0  0
 19 25  1  0     0  0
 20 26  1  0     0  0
 21 27  1  0     0  0
 24 28  1  0     0  0
 26 27  1  0     0  0
 28 29  1  0     0  0
 29 30  1  0     0  0
M  END
> <standard_type>
pIC50

> <# Confs.>
25

> <canonical_smiles>
CCCCC1=NC(Cl)=C(CC(OC)=O)N1CC2=CC=C(NC(CCC(O)=O)=O)C=C2

> <standard_relation>
=

> <Publication_ID>
nan

> <predicted_activity_value>
5.0

> <actual_activity_value>
4.337242168318426

> <Compound>
23

> <standard_units>
nM

> hash
17748807188493933904

$$$$
22
XXILIB    08252103513D 0   0.00000     0.00000

 30 31  0     1  0            999 V2000
   -3.5748    0.0265   -1.4596 Cl  0  0  0  0  0  1           0  0  0
    0.2063   -2.3958   -2.2827 O   0  0  0  0  0  2           0  0  0
    5.3537   10.0523   -0.0471 O   0  0  0  0  0  2           0  0  0
    5.2139    5.3768    1.5138 O   0  0  0  0  0  2           0  0  0
   -0.1927   -1.4488   -4.3441 O   0  0  0  0  0  2           0  0  0
    7.0219   10.0299    1.4979 O   0  0  0  0  0  2           0  0  0
    0.0000   -0.0000    0.0000 N   0  0  0  0  0  3           0  0  0
   -2.0822    0.0079    0.7623 N   0  0  0  0  0  3           0  0  0
    3.4961    5.3416   -0.0561 N   0  0  0  0  0  3           0  0  0
   -2.0956    0.0071   -0.6094 C   0  0  0  0  0  4           0  0  0
   -0.8139    0.0000    1.1146 C   0  0  0  0  0  4           0  0  0
   -0.8093   -0.0085   -1.1246 C   0  0  0  0  0  4           0  0  0
    3.0209    4.0165   -0.0152 C   0  0  0  0  0  4           0  0  0
    1.9910    1.3970   -0.0000 C   0  0  0  0  0  4           0  0  0
    1.9625    3.6692   -0.8604 C   0  0  0  0  0  4           0  0  0
    3.5692    3.0495    0.8334 C   0  0  0  0  0  4           0  0  0
    1.4527    2.3689   -0.8531 C   0  0  0  0  0  4           0  0  0
    3.0588    1.7482    0.8361 C   0  0  0  0  0  4           0  0  0
   -0.0496   -1.4279   -2.9865 C   0  0  0  0  0  4           0  0  0
    6.0239    9.4521    0.7829 C   0  0  0  0  0  4           0  0  0
    4.5169    5.9327    0.6670 C   0  0  0  0  0  4           0  0  0
   -0.0216   -2.7296   -4.9596 C   0  0  0  0  0  4           0  0  0
    1.4499    0.0000    0.0000 C   0  0  0  0  0  4           0  0  0
   -0.3297   -0.0006    2.5204 C   0  0  0  0  0  4           0  0  0
   -0.2528   -0.0150   -2.5008 C   0  0  0  0  0  4           0  0  0
    5.8340    8.0027    1.1299 C   0  0  0  0  0  4           0  0  0
    4.7077    7.3886    0.3185 C   0  0  0  0  0  4           0  0  0
   -0.1401    1.4101    3.0693 C   0  0  0  0  0  4           0  0  0
    0.3571    1.4207    4.5127 C   0  0  0  0  0  4           0  0  0
    0.5467    2.8269    5.0619 C   0  0  0  0  0  4           0  0  0
  1 10  1  0     0  0
  2 19  2  0     0  0
  3 20  2  0     0  0
  4 21  2  0     0  0
  5 19  1  0     0  0
  5 22  1  0     0  0
  6 20  1  0     0  0
  7 11  1  0     0  0
  7 12  1  0     0  0
  7 23  1  0     0  0
  8 10  1  0     0  0
  8 11  2  0     0  0
  9 13  1  0     0  0
  9 21  1  0     0  0
 10 12  2  0     0  0
 11 24  1  0     0  0
 12 25  1  0     0  0
 13 15  2  0     0  0
 13 16  1  0     0  0
 14 17  2  0     0  0
 14 18  1  0     0  0
 14 23  1  0     0  0
 15 17  1  0     0  0
 16 18  2  0     0  0
 19 25  1  0     0  0
 20 26  1  0     0  0
 21 27  1  0     0  0
 24 28  1  0     0  0
 26 27  1  0     0  0
 28 29  1  0     0  0
 29 30  1  0     0  0
M  END
> <standard_type>
pIC50

> <# Confs.>
25

> <canonical_smiles>
CCCCC1=NC(Cl)=C(CC(OC)=O)N1CC2=CC=C(NC(CCC(O)=O)=O)C=C2

> <standard_relation>
=

> <Publication_ID>
nan

> <predicted_activity_value>
5.0

> <actual_activity_value>
4.337242168318426

> <Compound>
23

> <standard_units>
nM

> hash
17748807188493933904

$$$$
22
XXILIB    08252103513D 0   0.00000     0.00000

 30 31  0     1  0            999 V2000
   -3.5748    0.0265   -1.4596 Cl  0  0  0  0  0  1           0  0  0
    0.2063   -2.3958   -2.2827 O   0  0  0  0  0  2           0  0  0
    5.3537   10.0523   -0.0471 O   0  0  0  0  0  2           0  0  0
    5.2139    5.3768    1.5138 O   0  0  0  0  0  2           0  0  0
   -0.1927   -1.4488   -4.3441 O   0  0  0  0  0  2           0  0  0
    7.0219   10.0299    1.4979 O   0  0  0  0  0  2           0  0  0
    0.0000   -0.0000    0.0000 N   0  0  0  0  0  3           0  0  0
   -2.0822    0.0079    0.7623 N   0  0  0  0  0  3           0  0  0
    3.4961    5.3416   -0.0561 N   0  0  0  0  0  3           0  0  0
   -2.0956    0.0071   -0.6094 C   0  0  0  0  0  4           0  0  0
   -0.8139    0.0000    1.1146 C   0  0  0  0  0  4           0  0  0
   -0.8093   -0.0085   -1.1246 C   0  0  0  0  0  4           0  0  0
    3.0209    4.0165   -0.0152 C   0  0  0  0  0  4           0  0  0
    1.9910    1.3970   -0.0000 C   0  0  0  0  0  4           0  0  0
    1.9625    3.6692   -0.8604 C   0  0  0  0  0  4           0  0  0
    3.5692    3.0495    0.8334 C   0  0  0  0  0  4           0  0  0
    1.4527    2.3689   -0.8531 C   0  0  0  0  0  4           0  0  0
    3.0588    1.7482    0.8361 C   0  0  0  0  0  4           0  0  0
   -0.0496   -1.4279   -2.9865 C   0  0  0  0  0  4           0  0  0
    6.0239    9.4521    0.7829 C   0  0  0  0  0  4           0  0  0
    4.5169    5.9327    0.6670 C   0  0  0  0  0  4           0  0  0
   -0.0216   -2.7296   -4.9596 C   0  0  0  0  0  4           0  0  0
    1.4499    0.0000    0.0000 C   0  0  0  0  0  4           0  0  0
   -0.3297   -0.0006    2.5204 C   0  0  0  0  0  4           0  0  0
   -0.2528   -0.0150   -2.5008 C   0  0  0  0  0  4           0  0  0
    5.8340    8.0027    1.1299 C   0  0  0  0  0  4           0  0  0
    4.7077    7.3886    0.3185 C   0  0  0  0  0  4           0  0  0
   -0.1413   -1.4118    3.0685 C   0  0  0  0  0  4           0  0  0
    0.3559   -1.4236    4.5118 C   0  0  0  0  0  4           0  0  0
    0.5445   -2.8302    5.0603 C   0  0  0  0  0  4           0  0  0
  1 10  1  0     0  0
  2 19  2  0     0  0
  3 20  2  0     0  0
  4 21  2  0     0  0
  5 19  1  0     0  0
  5 22  1  0     0  0
  6 20  1  0     0  0
  7 11  1  0     0  0
  7 12  1  0     0  0
  7 23  1  0     0  0
  8 10  1  0     0  0
  8 11  2  0     0  0
  9 13  1  0     0  0
  9 21  1  0     0  0
 10 12  2  0     0  0
 11 24  1  0     0  0
 12 25  1  0     0  0
 13 15  2  0     0  0
 13 16  1  0     0  0
 14 17  2  0     0  0
 14 18  1  0     0  0
 14 23  1  0     0  0
 15 17  1  0     0  0
 16 18  2  0     0  0
 19 25  1  0     0  0
 20 26  1  0     0  0
 21 27  1  0     0  0
 24 28  1  0     0  0
 26 27  1  0     0  0
 28 29  1  0     0  0
 29 30  1  0     0  0
M  END
> <standard_type>
pIC50

> <# Confs.>
25

> <canonical_smiles>
CCCCC1=NC(Cl)=C(CC(OC)=O)N1CC2=CC=C(NC(CCC(O)=O)=O)C=C2

> <standard_relation>
=

> <Publication_ID>
nan

> <predicted_activity_value>
5.0

> <actual_activity_value>
4.337242168318426

> <Compound>
23

> <standard_units>
nM

> hash
17748807188493933904

$$$$
22
XXILIB    08252103513D 0   0.00000     0.00000

 30 31  0     1  0            999 V2000
   -3.5748    0.0265   -1.4596 Cl  0  0  0  0  0  1           0  0  0
   -0.7146   -2.4003   -2.6550 O   0  0  0  0  0  2           0  0  0
    5.3537  -10.0523    0.0471 O   0  0  0  0  0  2           0  0  0
    5.2139   -5.3768   -1.5138 O   0  0  0  0  0  2           0  0  0
    1.0043   -1.4449   -3.8544 O   0  0  0  0  0  2           0  0  0
    7.0219  -10.0299   -1.4979 O   0  0  0  0  0  2           0  0  0
    0.0000   -0.0000    0.0000 N   0  0  0  0  0  3           0  0  0
   -2.0822    0.0079    0.7623 N   0  0  0  0  0  3           0  0  0
    3.4961   -5.3416    0.0561 N   0  0  0  0  0  3           0  0  0
   -2.0956    0.0071   -0.6094 C   0  0  0  0  0  4           0  0  0
   -0.8139    0.0000    1.1146 C   0  0  0  0  0  4           0  0  0
   -0.8093   -0.0085   -1.1246 C   0  0  0  0  0  4           0  0  0
    3.0209   -4.0165    0.0152 C   0  0  0  0  0  4           0  0  0
    1.9910   -1.3970    0.0000 C   0  0  0  0  0  4           0  0  0
    1.9625   -3.6692    0.8604 C   0  0  0  0  0  4           0  0  0
    3.5692   -3.0495   -0.8334 C   0  0  0  0  0  4           0  0  0
    1.4527   -2.3689    0.8531 C   0  0  0  0  0  4           0  0  0
    3.0588   -1.7482   -0.8361 C   0  0  0  0  0  4           0  0  0
   -0.0496   -1.4279   -2.9865 C   0  0  0  0  0  4           0  0  0
    6.0239   -9.4521   -0.7829 C   0  0  0  0  0  4           0  0  0
    4.5169   -5.9327   -0.6670 C   0  0  0  0  0  4           0  0  0
    1.3278   -2.7273   -4.4017 C   0  0  0  0  0  4           0  0  0
    1.4499   -0.0000   -0.0000 C   0  0  0  0  0  4           0  0  0
   -0.3297   -0.0006    2.5204 C   0  0  0  0  0  4           0  0  0
   -0.2528   -0.0150   -2.5008 C   0  0  0  0  0  4           0  0  0
    5.8340   -8.0027   -1.1299 C   0  0  0  0  0  4           0  0  0
    4.7077   -7.3886   -0.3185 C   0  0  0  0  0  4           0  0  0
   -1.0836    0.9972    3.3942 C   0  0  0  0  0  4           0  0  0
   -0.5939    1.0045    4.8401 C   0  0  0  0  0  4           0  0  0
   -1.3447    1.9990    5.7131 C   0  0  0  0  0  4           0  0  0
  1 10  1  0     0  0
  2 19  2  0     0  0
  3 20  2  0     0  0
  4 21  2  0     0  0
  5 19  1  0     0  0
  5 22  1  0     0  0
  6 20  1  0     0  0
  7 11  1  0     0  0
  7 12  1  0     0  0
  7 23  1  0     0  0
  8 10  1  0     0  0
  8 11  2  0     0  0
  9 13  1  0     0  0
  9 21  1  0     0  0
 10 12  2  0     0  0
 11 24  1  0     0  0
 12 25  1  0     0  0
 13 15  2  0     0  0
 13 16  1  0     0  0
 14 17  2  0     0  0
 14 18  1  0     0  0
 14 23  1  0     0  0
 15 17  1  0     0  0
 16 18  2  0     0  0
 19 25  1  0     0  0
 20 26  1  0     0  0
 21 27  1  0     0  0
 24 28  1  0     0  0
 26 27  1  0     0  0
 28 29  1  0     0  0
 29 30  1  0     0  0
M  END
> <standard_type>
pIC50

> <# Confs.>
25

> <canonical_smiles>
CCCCC1=NC(Cl)=C(CC(OC)=O)N1CC2=CC=C(NC(CCC(O)=O)=O)C=C2

> <standard_relation>
=

> <Publication_ID>
nan

> <predicted_activity_value>
5.0

> <actual_activity_value>
4.337242168318426

> <Compound>
23

> <standard_units>
nM

> hash
17748807188493933904

$$$$
22
XXILIB    08252103513D 0   0.00000     0.00000

 30 31  0     1  0            999 V2000
   -3.5748    0.0265   -1.4596 Cl  0  0  0  0  0  1           0  0  0
   -0.7146   -2.4003   -2.6550 O   0  0  0  0  0  2           0  0  0
    5.3537  -10.0523    0.0471 O   0  0  0  0  0  2           0  0  0
    5.2139   -5.3768   -1.5138 O   0  0  0  0  0  2           0  0  0
    1.0043   -1.4449   -3.8544 O   0  0  0  0  0  2           0  0  0
    7.0219  -10.0299   -1.4979 O   0  0  0  0  0  2           0  0  0
    0.0000   -0.0000    0.0000 N   0  0  0  0  0  3           0  0  0
   -2.0822    0.0079    0.7623 N   0  0  0  0  0  3           0  0  0
    3.4961   -5.3416    0.0561 N   0  0  0  0  0  3           0  0  0
   -2.0956    0.0071   -0.6094 C   0  0  0  0  0  4           0  0  0
   -0.8139    0.0000    1.1146 C   0  0  0  0  0  4           0  0  0
   -0.8093   -0.0085   -1.1246 C   0  0  0  0  0  4           0  0  0
    3.0209   -4.0165    0.0152 C   0  0  0  0  0  4           0  0  0
    1.9910   -1.3970    0.0000 C   0  0  0  0  0  4           0  0  0
    1.9625   -3.6692    0.8604 C   0  0  0  0  0  4           0  0  0
    3.5692   -3.0495   -0.8334 C   0  0  0  0  0  4           0  0  0
    1.4527   -2.3689    0.8531 C   0  0  0  0  0  4           0  0  0
    3.0588   -1.7482   -0.8361 C   0  0  0  0  0  4           0  0  0
   -0.0496   -1.4279   -2.9865 C   0  0  0  0  0  4           0  0  0
    6.0239   -9.4521   -0.7829 C   0  0  0  0  0  4           0  0  0
    4.5169   -5.9327   -0.6670 C   0  0  0  0  0  4           0  0  0
    1.3278   -2.7273   -4.4017 C   0  0  0  0  0  4           0  0  0
    1.4499   -0.0000   -0.0000 C   0  0  0  0  0  4           0  0  0
   -0.3297   -0.0006    2.5204 C   0  0  0  0  0  4           0  0  0
   -0.2528   -0.0150   -2.5008 C   0  0  0  0  0  4           0  0  0
    5.8340   -8.0027   -1.1299 C   0  0  0  0  0  4           0  0  0
    4.7077   -7.3886   -0.3185 C   0  0  0  0  0  4           0  0  0
   -1.0836    0.9972    3.3942 C   0  0  0  0  0  4           0  0  0
   -0.9512    2.4349    2.8984 C   0  0  0  0  0  4           0  0  0
   -1.7025    3.4315    3.7686 C   0  0  0  0  0  4           0  0  0
  1 10  1  0     0  0
  2 19  2  0     0  0
  3 20  2  0     0  0
  4 21  2  0     0  0
  5 19  1  0     0  0
  5 22  1  0     0  0
  6 20  1  0     0  0
  7 11  1  0     0  0
  7 12  1  0     0  0
  7 23  1  0     0  0
  8 10  1  0     0  0
  8 11  2  0     0  0
  9 13  1  0     0  0
  9 21  1  0     0  0
 10 12  2  0     0  0
 11 24  1  0     0  0
 12 25  1  0     0  0
 13 15  2  0     0  0
 13 16  1  0     0  0
 14 17  2  0     0  0
 14 18  1  0     0  0
 14 23  1  0     0  0
 15 17  1  0     0  0
 16 18  2  0     0  0
 19 25  1  0     0  0
 20 26  1  0     0  0
 21 27  1  0     0  0
 24 28  1  0     0  0
 26 27  1  0     0  0
 28 29  1  0     0  0
 29 30  1  0     0  0
M  END
> <standard_type>
pIC50

> <# Confs.>
25

> <canonical_smiles>
CCCCC1=NC(Cl)=C(CC(OC)=O)N1CC2=CC=C(NC(CCC(O)=O)=O)C=C2

> <standard_relation>
=

> <Publication_ID>
nan

> <predicted_activity_value>
5.0

> <actual_activity_value>
4.337242168318426

> <Compound>
23

> <standard_units>
nM

> hash
17748807188493933904

$$$$
22
XXILIB    08252103513D 0   0.00000     0.00000

 30 31  0     1  0            999 V2000
   -3.5748    0.0265   -1.4596 Cl  0  0  0  0  0  1           0  0  0
    0.2063   -2.3958   -2.2827 O   0  0  0  0  0  2           0  0  0
    5.3537   10.0523   -0.0471 O   0  0  0  0  0  2           0  0  0
    5.2139    5.3768    1.5138 O   0  0  0  0  0  2           0  0  0
   -0.1927   -1.4488   -4.3441 O   0  0  0  0  0  2           0  0  0
    7.0219   10.0299    1.4979 O   0  0  0  0  0  2           0  0  0
    0.0000   -0.0000    0.0000 N   0  0  0  0  0  3           0  0  0
   -2.0822    0.0079    0.7623 N   0  0  0  0  0  3           0  0  0
    3.4961    5.3416   -0.0561 N   0  0  0  0  0  3           0  0  0
   -2.0956    0.0071   -0.6094 C   0  0  0  0  0  4           0  0  0
   -0.8139    0.0000    1.1146 C   0  0  0  0  0  4           0  0  0
   -0.8093   -0.0085   -1.1246 C   0  0  0  0  0  4           0  0  0
    3.0209    4.0165   -0.0152 C   0  0  0  0  0  4           0  0  0
    1.9910    1.3970   -0.0000 C   0  0  0  0  0  4           0  0  0
    1.9625    3.6692   -0.8604 C   0  0  0  0  0  4           0  0  0
    3.5692    3.0495    0.8334 C   0  0  0  0  0  4           0  0  0
    1.4527    2.3689   -0.8531 C   0  0  0  0  0  4           0  0  0
    3.0588    1.7482    0.8361 C   0  0  0  0  0  4           0  0  0
   -0.0496   -1.4279   -2.9865 C   0  0  0  0  0  4           0  0  0
    6.0239    9.4521    0.7829 C   0  0  0  0  0  4           0  0  0
    4.5169    5.9327    0.6670 C   0  0  0  0  0  4           0  0  0
   -0.0216   -2.7296   -4.9596 C   0  0  0  0  0  4           0  0  0
    1.4499    0.0000    0.0000 C   0  0  0  0  0  4           0  0  0
   -0.3297   -0.0006    2.5204 C   0  0  0  0  0  4           0  0  0
   -0.2528   -0.0150   -2.5008 C   0  0  0  0  0  4           0  0  0
    5.8340    8.0027    1.1299 C   0  0  0  0  0  4           0  0  0
    4.7077    7.3886    0.3185 C   0  0  0  0  0  4           0  0  0
   -1.0836    0.9972    3.3942 C   0  0  0  0  0  4           0  0  0
   -0.9512    2.4349    2.8984 C   0  0  0  0  0  4           0  0  0
   -1.7025    3.4315    3.7686 C   0  0  0  0  0  4           0  0  0
  1 10  1  0     0  0
  2 19  2  0     0  0
  3 20  2  0     0  0
  4 21  2  0     0  0
  5 19  1  0     0  0
  5 22  1  0     0  0
  6 20  1  0     0  0
  7 11  1  0     0  0
  7 12  1  0     0  0
  7 23  1  0     0  0
  8 10  1  0     0  0
  8 11  2  0     0  0
  9 13  1  0     0  0
  9 21  1  0     0  0
 10 12  2  0     0  0
 11 24  1  0     0  0
 12 25  1  0     0  0
 13 15  2  0     0  0
 13 16  1  0     0  0
 14 17  2  0     0  0
 14 18  1  0     0  0
 14 23  1  0     0  0
 15 17  1  0     0  0
 16 18  2  0     0  0
 19 25  1  0     0  0
 20 26  1  0     0  0
 21 27  1  0     0  0
 24 28  1  0     0  0
 26 27  1  0     0  0
 28 29  1  0     0  0
 29 30  1  0     0  0
M  END
> <standard_type>
pIC50

> <# Confs.>
25

> <canonical_smiles>
CCCCC1=NC(Cl)=C(CC(OC)=O)N1CC2=CC=C(NC(CCC(O)=O)=O)C=C2

> <standard_relation>
=

> <Publication_ID>
nan

> <predicted_activity_value>
5.0

> <actual_activity_value>
4.337242168318426

> <Compound>
23

> <standard_units>
nM

> hash
17748807188493933904

$$$$
22
XXILIB    08252103513D 0   0.00000     0.00000

 30 31  0     1  0            999 V2000
   -3.5748    0.0265   -1.4596 Cl  0  0  0  0  0  1           0  0  0
    0.2063   -2.3958   -2.2827 O   0  0  0  0  0  2           0  0  0
    5.3537   10.0523   -0.0471 O   0  0  0  0  0  2           0  0  0
    5.2139    5.3768    1.5138 O   0  0  0  0  0  2           0  0  0
   -0.1927   -1.4488   -4.3441 O   0  0  0  0  0  2           0  0  0
    7.0219   10.0299    1.4979 O   0  0  0  0  0  2           0  0  0
    0.0000   -0.0000    0.0000 N   0  0  0  0  0  3           0  0  0
   -2.0822    0.0079    0.7623 N   0  0  0  0  0  3           0  0  0
    3.4961    5.3416   -0.0561 N   0  0  0  0  0  3           0  0  0
   -2.0956    0.0071   -0.6094 C   0  0  0  0  0  4           0  0  0
   -0.8139    0.0000    1.1146 C   0  0  0  0  0  4           0  0  0
   -0.8093   -0.0085   -1.1246 C   0  0  0  0  0  4           0  0  0
    3.0209    4.0165   -0.0152 C   0  0  0  0  0  4           0  0  0
    1.9910    1.3970   -0.0000 C   0  0  0  0  0  4           0  0  0
    1.9625    3.6692   -0.8604 C   0  0  0  0  0  4           0  0  0
    3.5692    3.0495    0.8334 C   0  0  0  0  0  4           0  0  0
    1.4527    2.3689   -0.8531 C   0  0  0  0  0  4           0  0  0
    3.0588    1.7482    0.8361 C   0  0  0  0  0  4           0  0  0
   -0.0496   -1.4279   -2.9865 C   0  0  0  0  0  4           0  0  0
    6.0239    9.4521    0.7829 C   0  0  0  0  0  4           0  0  0
    4.5169    5.9327    0.6670 C   0  0  0  0  0  4           0  0  0
   -0.0216   -2.7296   -4.9596 C   0  0  0  0  0  4           0  0  0
    1.4499    0.0000    0.0000 C   0  0  0  0  0  4           0  0  0
   -0.3297   -0.0006    2.5204 C   0  0  0  0  0  4           0  0  0
   -0.2528   -0.0150   -2.5008 C   0  0  0  0  0  4           0  0  0
    5.8340    8.0027    1.1299 C   0  0  0  0  0  4           0  0  0
    4.7077    7.3886    0.3185 C   0  0  0  0  0  4           0  0  0
   -1.4747   -0.0004    3.5285 C   0  0  0  0  0  4           0  0  0
   -0.9881   -0.0010    4.9754 C   0  0  0  0  0  4           0  0  0
   -2.1287   -0.0009    5.9824 C   0  0  0  0  0  4           0  0  0
  1 10  1  0     0  0
  2 19  2  0     0  0
  3 20  2  0     0  0
  4 21  2  0     0  0
  5 19  1  0     0  0
  5 22  1  0     0  0
  6 20  1  0     0  0
  7 11  1  0     0  0
  7 12  1  0     0  0
  7 23  1  0     0  0
  8 10  1  0     0  0
  8 11  2  0     0  0
  9 13  1  0     0  0
  9 21  1  0     0  0
 10 12  2  0     0  0
 11 24  1  0     0  0
 12 25  1  0     0  0
 13 15  2  0     0  0
 13 16  1  0     0  0
 14 17  2  0     0  0
 14 18  1  0     0  0
 14 23  1  0     0  0
 15 17  1  0     0  0
 16 18  2  0     0  0
 19 25  1  0     0  0
 20 26  1  0     0  0
 21 27  1  0     0  0
 24 28  1  0     0  0
 26 27  1  0     0  0
 28 29  1  0     0  0
 29 30  1  0     0  0
M  END
> <standard_type>
pIC50

> <# Confs.>
25

> <canonical_smiles>
CCCCC1=NC(Cl)=C(CC(OC)=O)N1CC2=CC=C(NC(CCC(O)=O)=O)C=C2

> <standard_relation>
=

> <Publication_ID>
nan

> <predicted_activity_value>
5.0

> <actual_activity_value>
4.337242168318426

> <Compound>
23

> <standard_units>
nM

> hash
17748807188493933904

$$$$
22
XXILIB    08252103513D 0   0.00000     0.00000

 30 31  0     1  0            999 V2000
   -3.5748    0.0265   -1.4596 Cl  0  0  0  0  0  1           0  0  0
    0.2063   -2.3958   -2.2827 O   0  0  0  0  0  2           0  0  0
    5.3537   10.0523   -0.0471 O   0  0  0  0  0  2           0  0  0
    5.2139    5.3768    1.5138 O   0  0  0  0  0  2           0  0  0
   -0.1927   -1.4488   -4.3441 O   0  0  0  0  0  2           0  0  0
    7.0219   10.0299    1.4979 O   0  0  0  0  0  2           0  0  0
    0.0000   -0.0000    0.0000 N   0  0  0  0  0  3           0  0  0
   -2.0822    0.0079    0.7623 N   0  0  0  0  0  3           0  0  0
    3.4961    5.3416   -0.0561 N   0  0  0  0  0  3           0  0  0
   -2.0956    0.0071   -0.6094 C   0  0  0  0  0  4           0  0  0
   -0.8139    0.0000    1.1146 C   0  0  0  0  0  4           0  0  0
   -0.8093   -0.0085   -1.1246 C   0  0  0  0  0  4           0  0  0
    3.0209    4.0165   -0.0152 C   0  0  0  0  0  4           0  0  0
    1.9910    1.3970   -0.0000 C   0  0  0  0  0  4           0  0  0
    1.9625    3.6692   -0.8604 C   0  0  0  0  0  4           0  0  0
    3.5692    3.0495    0.8334 C   0  0  0  0  0  4           0  0  0
    1.4527    2.3689   -0.8531 C   0  0  0  0  0  4           0  0  0
    3.0588    1.7482    0.8361 C   0  0  0  0  0  4           0  0  0
   -0.0496   -1.4279   -2.9865 C   0  0  0  0  0  4           0  0  0
    6.0239    9.4521    0.7829 C   0  0  0  0  0  4           0  0  0
    4.5169    5.9327    0.6670 C   0  0  0  0  0  4           0  0  0
   -0.0216   -2.7296   -4.9596 C   0  0  0  0  0  4           0  0  0
    1.4499    0.0000    0.0000 C   0  0  0  0  0  4           0  0  0
   -0.3297   -0.0006    2.5204 C   0  0  0  0  0  4           0  0  0
   -0.2528   -0.0150   -2.5008 C   0  0  0  0  0  4           0  0  0
    5.8340    8.0027    1.1299 C   0  0  0  0  0  4           0  0  0
    4.7077    7.3886    0.3185 C   0  0  0  0  0  4           0  0  0
   -0.1413   -1.4118    3.0685 C   0  0  0  0  0  4           0  0  0
   -1.4329   -2.2254    3.0624 C   0  0  0  0  0  4           0  0  0
   -1.2471   -3.6332    3.6087 C   0  0  0  0  0  4           0  0  0
  1 10  1  0     0  0
  2 19  2  0     0  0
  3 20  2  0     0  0
  4 21  2  0     0  0
  5 19  1  0     0  0
  5 22  1  0     0  0
  6 20  1  0     0  0
  7 11  1  0     0  0
  7 12  1  0     0  0
  7 23  1  0     0  0
  8 10  1  0     0  0
  8 11  2  0     0  0
  9 13  1  0     0  0
  9 21  1  0     0  0
 10 12  2  0     0  0
 11 24  1  0     0  0
 12 25  1  0     0  0
 13 15  2  0     0  0
 13 16  1  0     0  0
 14 17  2  0     0  0
 14 18  1  0     0  0
 14 23  1  0     0  0
 15 17  1  0     0  0
 16 18  2  0     0  0
 19 25  1  0     0  0
 20 26  1  0     0  0
 21 27  1  0     0  0
 24 28  1  0     0  0
 26 27  1  0     0  0
 28 29  1  0     0  0
 29 30  1  0     0  0
M  END
> <standard_type>
pIC50

> <# Confs.>
25

> <canonical_smiles>
CCCCC1=NC(Cl)=C(CC(OC)=O)N1CC2=CC=C(NC(CCC(O)=O)=O)C=C2

> <standard_relation>
=

> <Publication_ID>
nan

> <predicted_activity_value>
5.0

> <actual_activity_value>
4.337242168318426

> <Compound>
23

> <standard_units>
nM

> hash
17748807188493933904

$$$$
22
XXILIB    08252103513D 0   0.00000     0.00000

 30 31  0     1  0            999 V2000
   -3.5748    0.0265   -1.4596 Cl  0  0  0  0  0  1           0  0  0
    0.1941    2.3706   -2.3099 O   0  0  0  0  0  2           0  0  0
    5.3890  -10.0386   -0.0093 O   0  0  0  0  0  2           0  0  0
    2.3404   -6.4899   -1.5678 O   0  0  0  0  0  2           0  0  0
   -0.2113    1.4000   -4.3592 O   0  0  0  0  0  2           0  0  0
    4.1584  -11.1391   -1.5729 O   0  0  0  0  0  2           0  0  0
    0.0000   -0.0000    0.0000 N   0  0  0  0  0  3           0  0  0
   -2.0822    0.0079    0.7623 N   0  0  0  0  0  3           0  0  0
    3.5683   -5.3136    0.0214 N   0  0  0  0  0  3           0  0  0
   -2.0956    0.0071   -0.6094 C   0  0  0  0  0  4           0  0  0
   -0.8139    0.0000    1.1146 C   0  0  0  0  0  4           0  0  0
   -0.8093   -0.0085   -1.1246 C   0  0  0  0  0  4           0  0  0
    3.0219   -4.0161   -0.0141 C   0  0  0  0  0  4           0  0  0
    1.9910   -1.3970    0.0000 C   0  0  0  0  0  4           0  0  0
    3.5549   -3.0524    0.8473 C   0  0  0  0  0  4           0  0  0
    1.9764   -3.6665   -0.8747 C   0  0  0  0  0  4           0  0  0
    3.0436   -1.7526    0.8531 C   0  0  0  0  0  4           0  0  0
    1.4690   -2.3640   -0.8689 C   0  0  0  0  0  4           0  0  0
   -0.0568    1.3933   -3.0026 C   0  0  0  0  0  4           0  0  0
    4.5003  -10.0423   -0.8511 C   0  0  0  0  0  4           0  0  0
    3.2263   -6.4326   -0.7170 C   0  0  0  0  0  4           0  0  0
   -0.0593    2.6768   -4.9878 C   0  0  0  0  0  4           0  0  0
    1.4499   -0.0000    0.0000 C   0  0  0  0  0  4           0  0  0
   -0.3297   -0.0006    2.5204 C   0  0  0  0  0  4           0  0  0
   -0.2528   -0.0150   -2.5008 C   0  0  0  0  0  4           0  0  0
    3.6638   -8.8434   -1.1974 C   0  0  0  0  0  4           0  0  0
    4.0666   -7.6369   -0.3691 C   0  0  0  0  0  4           0  0  0
   -0.1401    1.4101    3.0693 C   0  0  0  0  0  4           0  0  0
    0.3571    1.4207    4.5127 C   0  0  0  0  0  4           0  0  0
    0.5467    2.8269    5.0619 C   0  0  0  0  0  4           0  0  0
  1 10  1  0     0  0
  2 19  2  0     0  0
  3 20  2  0     0  0
  4 21  2  0     0  0
  5 19  1  0     0  0
  5 22  1  0     0  0
  6 20  1  0     0  0
  7 11  1  0     0  0
  7 12  1  0     0  0
  7 23  1  0     0  0
  8 10  1  0     0  0
  8 11  2  0     0  0
  9 13  1  0     0  0
  9 21  1  0     0  0
 10 12  2  0     0  0
 11 24  1  0     0  0
 12 25  1  0     0  0
 13 15  2  0     0  0
 13 16  1  0     0  0
 14 17  2  0     0  0
 14 18  1  0     0  0
 14 23  1  0     0  0
 15 17  1  0     0  0
 16 18  2  0     0  0
 19 25  1  0     0  0
 20 26  1  0     0  0
 21 27  1  0     0  0
 24 28  1  0     0  0
 26 27  1  0     0  0
 28 29  1  0     0  0
 29 30  1  0     0  0
M  END
> <standard_type>
pIC50

> <# Confs.>
25

> <canonical_smiles>
CCCCC1=NC(Cl)=C(CC(OC)=O)N1CC2=CC=C(NC(CCC(O)=O)=O)C=C2

> <standard_relation>
=

> <Publication_ID>
nan

> <predicted_activity_value>
5.0

> <actual_activity_value>
4.337242168318426

> <Compound>
23

> <standard_units>
nM

> hash
17748807188493933904

$$$$
22
XXILIB    08252103513D 0   0.00000     0.00000

 30 31  0     1  0            999 V2000
   -3.5748    0.0265   -1.4596 Cl  0  0  0  0  0  1           0  0  0
   -0.7146   -2.4003   -2.6550 O   0  0  0  0  0  2           0  0  0
    5.3537  -10.0523    0.0471 O   0  0  0  0  0  2           0  0  0
    5.2139   -5.3768   -1.5138 O   0  0  0  0  0  2           0  0  0
    1.0043   -1.4449   -3.8544 O   0  0  0  0  0  2           0  0  0
    7.0219  -10.0299   -1.4979 O   0  0  0  0  0  2           0  0  0
    0.0000   -0.0000    0.0000 N   0  0  0  0  0  3           0  0  0
   -2.0822    0.0079    0.7623 N   0  0  0  0  0  3           0  0  0
    3.4961   -5.3416    0.0561 N   0  0  0  0  0  3           0  0  0
   -2.0956    0.0071   -0.6094 C   0  0  0  0  0  4           0  0  0
   -0.8139    0.0000    1.1146 C   0  0  0  0  0  4           0  0  0
   -0.8093   -0.0085   -1.1246 C   0  0  0  0  0  4           0  0  0
    3.0209   -4.0165    0.0152 C   0  0  0  0  0  4           0  0  0
    1.9910   -1.3970    0.0000 C   0  0  0  0  0  4           0  0  0
    1.9625   -3.6692    0.8604 C   0  0  0  0  0  4           0  0  0
    3.5692   -3.0495   -0.8334 C   0  0  0  0  0  4           0  0  0
    1.4527   -2.3689    0.8531 C   0  0  0  0  0  4           0  0  0
    3.0588   -1.7482   -0.8361 C   0  0  0  0  0  4           0  0  0
   -0.0496   -1.4279   -2.9865 C   0  0  0  0  0  4           0  0  0
    6.0239   -9.4521   -0.7829 C   0  0  0  0  0  4           0  0  0
    4.5169   -5.9327   -0.6670 C   0  0  0  0  0  4           0  0  0
    1.3278   -2.7273   -4.4017 C   0  0  0  0  0  4           0  0  0
    1.4499   -0.0000   -0.0000 C   0  0  0  0  0  4           0  0  0
   -0.3297   -0.0006    2.5204 C   0  0  0  0  0  4           0  0  0
   -0.2528   -0.0150   -2.5008 C   0  0  0  0  0  4           0  0  0
    5.8340   -8.0027   -1.1299 C   0  0  0  0  0  4           0  0  0
    4.7077   -7.3886   -0.3185 C   0  0  0  0  0  4           0  0  0
   -1.0844   -0.9983    3.3936 C   0  0  0  0  0  4           0  0  0
   -0.5947   -1.0068    4.8395 C   0  0  0  0  0  4           0  0  0
   -1.3462   -2.0012    5.7120 C   0  0  0  0  0  4           0  0  0
  1 10  1  0     0  0
  2 19  2  0     0  0
  3 20  2  0     0  0
  4 21  2  0     0  0
  5 19  1  0     0  0
  5 22  1  0     0  0
  6 20  1  0     0  0
  7 11  1  0     0  0
  7 12  1  0     0  0
  7 23  1  0     0  0
  8 10  1  0     0  0
  8 11  2  0     0  0
  9 13  1  0     0  0
  9 21  1  0     0  0
 10 12  2  0     0  0
 11 24  1  0     0  0
 12 25  1  0     0  0
 13 15  2  0     0  0
 13 16  1  0     0  0
 14 17  2  0     0  0
 14 18  1  0     0  0
 14 23  1  0     0  0
 15 17  1  0     0  0
 16 18  2  0     0  0
 19 25  1  0     0  0
 20 26  1  0     0  0
 21 27  1  0     0  0
 24 28  1  0     0  0
 26 27  1  0     0  0
 28 29  1  0     0  0
 29 30  1  0     0  0
M  END
> <standard_type>
pIC50

> <# Confs.>
25

> <canonical_smiles>
CCCCC1=NC(Cl)=C(CC(OC)=O)N1CC2=CC=C(NC(CCC(O)=O)=O)C=C2

> <standard_relation>
=

> <Publication_ID>
nan

> <predicted_activity_value>
5.0

> <actual_activity_value>
4.337242168318426

> <Compound>
23

> <standard_units>
nM

> hash
17748807188493933904

$$$$
22
XXILIB    08252103513D 0   0.00000     0.00000

 30 31  0     1  0            999 V2000
   -3.5748    0.0265   -1.4596 Cl  0  0  0  0  0  1           0  0  0
   -0.7268    2.3661   -2.6823 O   0  0  0  0  0  2           0  0  0
    5.3537  -10.0523    0.0471 O   0  0  0  0  0  2           0  0  0
    5.2139   -5.3768   -1.5138 O   0  0  0  0  0  2           0  0  0
    0.9898    1.4038   -3.8794 O   0  0  0  0  0  2           0  0  0
    7.0219  -10.0299   -1.4979 O   0  0  0  0  0  2           0  0  0
    0.0000   -0.0000    0.0000 N   0  0  0  0  0  3           0  0  0
   -2.0822    0.0079    0.7623 N   0  0  0  0  0  3           0  0  0
    3.4961   -5.3416    0.0561 N   0  0  0  0  0  3           0  0  0
   -2.0956    0.0071   -0.6094 C   0  0  0  0  0  4           0  0  0
   -0.8139    0.0000    1.1146 C   0  0  0  0  0  4           0  0  0
   -0.8093   -0.0085   -1.1246 C   0  0  0  0  0  4           0  0  0
    3.0209   -4.0165    0.0152 C   0  0  0  0  0  4           0  0  0
    1.9910   -1.3970    0.0000 C   0  0  0  0  0  4           0  0  0
    1.9625   -3.6692    0.8604 C   0  0  0  0  0  4           0  0  0
    3.5692   -3.0495   -0.8334 C   0  0  0  0  0  4           0  0  0
    1.4527   -2.3689    0.8531 C   0  0  0  0  0  4           0  0  0
    3.0588   -1.7482   -0.8361 C   0  0  0  0  0  4           0  0  0
   -0.0568    1.3933   -3.0026 C   0  0  0  0  0  4           0  0  0
    6.0239   -9.4521   -0.7829 C   0  0  0  0  0  4           0  0  0
    4.5169   -5.9327   -0.6670 C   0  0  0  0  0  4           0  0  0
    1.2986    2.6791   -4.4511 C   0  0  0  0  0  4           0  0  0
    1.4499   -0.0000   -0.0000 C   0  0  0  0  0  4           0  0  0
   -0.3297   -0.0006    2.5204 C   0  0  0  0  0  4           0  0  0
   -0.2528   -0.0150   -2.5008 C   0  0  0  0  0  4           0  0  0
    5.8340   -8.0027   -1.1299 C   0  0  0  0  0  4           0  0  0
    4.7077   -7.3886   -0.3185 C   0  0  0  0  0  4           0  0  0
   -0.1401    1.4101    3.0693 C   0  0  0  0  0  4           0  0  0
    0.3571    1.4207    4.5127 C   0  0  0  0  0  4           0  0  0
    0.5467    2.8269    5.0619 C   0  0  0  0  0  4           0  0  0
  1 10  1  0     0  0
  2 19  2  0     0  0
  3 20  2  0     0  0
  4 21  2  0     0  0
  5 19  1  0     0  0
  5 22  1  0     0  0
  6 20  1  0     0  0
  7 11  1  0     0  0
  7 12  1  0     0  0
  7 23  1  0     0  0
  8 10  1  0     0  0
  8 11  2  0     0  0
  9 13  1  0     0  0
  9 21  1  0     0  0
 10 12  2  0     0  0
 11 24  1  0     0  0
 12 25  1  0     0  0
 13 15  2  0     0  0
 13 16  1  0     0  0
 14 17  2  0     0  0
 14 18  1  0     0  0
 14 23  1  0     0  0
 15 17  1  0     0  0
 16 18  2  0     0  0
 19 25  1  0     0  0
 20 26  1  0     0  0
 21 27  1  0     0  0
 24 28  1  0     0  0
 26 27  1  0     0  0
 28 29  1  0     0  0
 29 30  1  0     0  0
M  END
> <standard_type>
pIC50

> <# Confs.>
25

> <canonical_smiles>
CCCCC1=NC(Cl)=C(CC(OC)=O)N1CC2=CC=C(NC(CCC(O)=O)=O)C=C2

> <standard_relation>
=

> <Publication_ID>
nan

> <predicted_activity_value>
5.0

> <actual_activity_value>
4.337242168318426

> <Compound>
23

> <standard_units>
nM

> hash
17748807188493933904

$$$$
22
XXILIB    08252103513D 0   0.00000     0.00000

 30 31  0     1  0            999 V2000
   -3.5748    0.0265   -1.4596 Cl  0  0  0  0  0  1           0  0  0
   -0.3132    2.4159   -2.3810 O   0  0  0  0  0  2           0  0  0
    5.4447   -9.9975    0.2260 O   0  0  0  0  0  2           0  0  0
    5.2139   -5.3768   -1.5138 O   0  0  0  0  0  2           0  0  0
    0.4495    1.3400   -4.2695 O   0  0  0  0  0  2           0  0  0
    7.6293   -9.6662   -0.3112 O   0  0  0  0  0  2           0  0  0
    0.0000   -0.0000    0.0000 N   0  0  0  0  0  3           0  0  0
   -2.0822    0.0079    0.7623 N   0  0  0  0  0  3           0  0  0
    3.4961   -5.3416    0.0561 N   0  0  0  0  0  3           0  0  0
   -2.0956    0.0071   -0.6094 C   0  0  0  0  0  4           0  0  0
   -0.8139    0.0000    1.1146 C   0  0  0  0  0  4           0  0  0
   -0.8093   -0.0085   -1.1246 C   0  0  0  0  0  4           0  0  0
    3.0209   -4.0165    0.0152 C   0  0  0  0  0  4           0  0  0
    1.9910   -1.3970    0.0000 C   0  0  0  0  0  4           0  0  0
    1.9625   -3.6692    0.8604 C   0  0  0  0  0  4           0  0  0
    3.5692   -3.0495   -0.8334 C   0  0  0  0  0  4           0  0  0
    1.4527   -2.3689    0.8531 C   0  0  0  0  0  4           0  0  0
    3.0588   -1.7482   -0.8361 C   0  0  0  0  0  4           0  0  0
   -0.0568    1.3933   -3.0026 C   0  0  0  0  0  4           0  0  0
    6.3446   -9.2592   -0.1529 C   0  0  0  0  0  4           0  0  0
    4.5169   -5.9327   -0.6670 C   0  0  0  0  0  4           0  0  0
    0.6869    2.6080   -4.8893 C   0  0  0  0  0  4           0  0  0
    1.4499   -0.0000   -0.0000 C   0  0  0  0  0  4           0  0  0
   -0.3297   -0.0006    2.5204 C   0  0  0  0  0  4           0  0  0
   -0.2528   -0.0150   -2.5008 C   0  0  0  0  0  4           0  0  0
    6.1546   -7.8099   -0.4998 C   0  0  0  0  0  4           0  0  0
    4.7077   -7.3886   -0.3185 C   0  0  0  0  0  4           0  0  0
   -1.0836    0.9972    3.3942 C   0  0  0  0  0  4           0  0  0
   -0.9512    2.4349    2.8984 C   0  0  0  0  0  4           0  0  0
    0.4914    2.9172    2.8631 C   0  0  0  0  0  4           0  0  0
  1 10  1  0     0  0
  2 19  2  0     0  0
  3 20  2  0     0  0
  4 21  2  0     0  0
  5 19  1  0     0  0
  5 22  1  0     0  0
  6 20  1  0     0  0
  7 11  1  0     0  0
  7 12  1  0     0  0
  7 23  1  0     0  0
  8 10  1  0     0  0
  8 11  2  0     0  0
  9 13  1  0     0  0
  9 21  1  0     0  0
 10 12  2  0     0  0
 11 24  1  0     0  0
 12 25  1  0     0  0
 13 15  2  0     0  0
 13 16  1  0     0  0
 14 17  2  0     0  0
 14 18  1  0     0  0
 14 23  1  0     0  0
 15 17  1  0     0  0
 16 18  2  0     0  0
 19 25  1  0     0  0
 20 26  1  0     0  0
 21 27  1  0     0  0
 24 28  1  0     0  0
 26 27  1  0     0  0
 28 29  1  0     0  0
 29 30  1  0     0  0
M  END
> <standard_type>
pIC50

> <# Confs.>
25

> <canonical_smiles>
CCCCC1=NC(Cl)=C(CC(OC)=O)N1CC2=CC=C(NC(CCC(O)=O)=O)C=C2

> <standard_relation>
=

> <Publication_ID>
nan

> <predicted_activity_value>
5.0

> <actual_activity_value>
4.337242168318426

> <Compound>
23

> <standard_units>
nM

> hash
17748807188493933904

$$$$
22
XXILIB    08252103513D 0   0.00000     0.00000

 30 31  0     1  0            999 V2000
   -3.5748    0.0265   -1.4596 Cl  0  0  0  0  0  1           0  0  0
    0.1941    2.3706   -2.3099 O   0  0  0  0  0  2           0  0  0
    5.3890  -10.0386   -0.0093 O   0  0  0  0  0  2           0  0  0
    2.3404   -6.4899   -1.5678 O   0  0  0  0  0  2           0  0  0
   -0.2113    1.4000   -4.3592 O   0  0  0  0  0  2           0  0  0
    4.1584  -11.1391   -1.5729 O   0  0  0  0  0  2           0  0  0
    0.0000   -0.0000    0.0000 N   0  0  0  0  0  3           0  0  0
   -2.0822    0.0079    0.7623 N   0  0  0  0  0  3           0  0  0
    3.5683   -5.3136    0.0214 N   0  0  0  0  0  3           0  0  0
   -2.0956    0.0071   -0.6094 C   0  0  0  0  0  4           0  0  0
   -0.8139    0.0000    1.1146 C   0  0  0  0  0  4           0  0  0
   -0.8093   -0.0085   -1.1246 C   0  0  0  0  0  4           0  0  0
    3.0219   -4.0161   -0.0141 C   0  0  0  0  0  4           0  0  0
    1.9910   -1.3970    0.0000 C   0  0  0  0  0  4           0  0  0
    3.5549   -3.0524    0.8473 C   0  0  0  0  0  4           0  0  0
    1.9764   -3.6665   -0.8747 C   0  0  0  0  0  4           0  0  0
    3.0436   -1.7526    0.8531 C   0  0  0  0  0  4           0  0  0
    1.4690   -2.3640   -0.8689 C   0  0  0  0  0  4           0  0  0
   -0.0568    1.3933   -3.0026 C   0  0  0  0  0  4           0  0  0
    4.5003  -10.0423   -0.8511 C   0  0  0  0  0  4           0  0  0
    3.2263   -6.4326   -0.7170 C   0  0  0  0  0  4           0  0  0
   -0.0593    2.6768   -4.9878 C   0  0  0  0  0  4           0  0  0
    1.4499   -0.0000    0.0000 C   0  0  0  0  0  4           0  0  0
   -0.3297   -0.0006    2.5204 C   0  0  0  0  0  4           0  0  0
   -0.2528   -0.0150   -2.5008 C   0  0  0  0  0  4           0  0  0
    3.6638   -8.8434   -1.1974 C   0  0  0  0  0  4           0  0  0
    4.0666   -7.6369   -0.3691 C   0  0  0  0  0  4           0  0  0
   -0.1413   -1.4118    3.0685 C   0  0  0  0  0  4           0  0  0
    0.3559   -1.4236    4.5118 C   0  0  0  0  0  4           0  0  0
    0.5445   -2.8302    5.0603 C   0  0  0  0  0  4           0  0  0
  1 10  1  0     0  0
  2 19  2  0     0  0
  3 20  2  0     0  0
  4 21  2  0     0  0
  5 19  1  0     0  0
  5 22  1  0     0  0
  6 20  1  0     0  0
  7 11  1  0     0  0
  7 12  1  0     0  0
  7 23  1  0     0  0
  8 10  1  0     0  0
  8 11  2  0     0  0
  9 13  1  0     0  0
  9 21  1  0     0  0
 10 12  2  0     0  0
 11 24  1  0     0  0
 12 25  1  0     0  0
 13 15  2  0     0  0
 13 16  1  0     0  0
 14 17  2  0     0  0
 14 18  1  0     0  0
 14 23  1  0     0  0
 15 17  1  0     0  0
 16 18  2  0     0  0
 19 25  1  0     0  0
 20 26  1  0     0  0
 21 27  1  0     0  0
 24 28  1  0     0  0
 26 27  1  0     0  0
 28 29  1  0     0  0
 29 30  1  0     0  0
M  END
> <standard_type>
pIC50

> <# Confs.>
25

> <canonical_smiles>
CCCCC1=NC(Cl)=C(CC(OC)=O)N1CC2=CC=C(NC(CCC(O)=O)=O)C=C2

> <standard_relation>
=

> <Publication_ID>
nan

> <predicted_activity_value>
5.0

> <actual_activity_value>
4.337242168318426

> <Compound>
23

> <standard_units>
nM

> hash
17748807188493933904

$$$$
22
XXILIB    08252103513D 0   0.00000     0.00000

 30 31  0     1  0            999 V2000
   -3.5748    0.0265   -1.4596 Cl  0  0  0  0  0  1           0  0  0
    0.1941    2.3706   -2.3099 O   0  0  0  0  0  2           0  0  0
    5.3890  -10.0386   -0.0093 O   0  0  0  0  0  2           0  0  0
    2.3404   -6.4899   -1.5678 O   0  0  0  0  0  2           0  0  0
   -0.2113    1.4000   -4.3592 O   0  0  0  0  0  2           0  0  0
    4.1584  -11.1391   -1.5729 O   0  0  0  0  0  2           0  0  0
    0.0000   -0.0000    0.0000 N   0  0  0  0  0  3           0  0  0
   -2.0822    0.0079    0.7623 N   0  0  0  0  0  3           0  0  0
    3.5683   -5.3136    0.0214 N   0  0  0  0  0  3           0  0  0
   -2.0956    0.0071   -0.6094 C   0  0  0  0  0  4           0  0  0
   -0.8139    0.0000    1.1146 C   0  0  0  0  0  4           0  0  0
   -0.8093   -0.0085   -1.1246 C   0  0  0  0  0  4           0  0  0
    3.0219   -4.0161   -0.0141 C   0  0  0  0  0  4           0  0  0
    1.9910   -1.3970    0.0000 C   0  0  0  0  0  4           0  0  0
    3.5549   -3.0524    0.8473 C   0  0  0  0  0  4           0  0  0
    1.9764   -3.6665   -0.8747 C   0  0  0  0  0  4           0  0  0
    3.0436   -1.7526    0.8531 C   0  0  0  0  0  4           0  0  0
    1.4690   -2.3640   -0.8689 C   0  0  0  0  0  4           0  0  0
   -0.0568    1.3933   -3.0026 C   0  0  0  0  0  4           0  0  0
    4.5003  -10.0423   -0.8511 C   0  0  0  0  0  4           0  0  0
    3.2263   -6.4326   -0.7170 C   0  0  0  0  0  4           0  0  0
   -0.0593    2.6768   -4.9878 C   0  0  0  0  0  4           0  0  0
    1.4499   -0.0000    0.0000 C   0  0  0  0  0  4           0  0  0
   -0.3297   -0.0006    2.5204 C   0  0  0  0  0  4           0  0  0
   -0.2528   -0.0150   -2.5008 C   0  0  0  0  0  4           0  0  0
    3.6638   -8.8434   -1.1974 C   0  0  0  0  0  4           0  0  0
    4.0666   -7.6369   -0.3691 C   0  0  0  0  0  4           0  0  0
   -0.1401    1.4101    3.0693 C   0  0  0  0  0  4           0  0  0
   -1.4312    2.2248    3.0636 C   0  0  0  0  0  4           0  0  0
   -1.2442    3.6321    3.6108 C   0  0  0  0  0  4           0  0  0
  1 10  1  0     0  0
  2 19  2  0     0  0
  3 20  2  0     0  0
  4 21  2  0     0  0
  5 19  1  0     0  0
  5 22  1  0     0  0
  6 20  1  0     0  0
  7 11  1  0     0  0
  7 12  1  0     0  0
  7 23  1  0     0  0
  8 10  1  0     0  0
  8 11  2  0     0  0
  9 13  1  0     0  0
  9 21  1  0     0  0
 10 12  2  0     0  0
 11 24  1  0     0  0
 12 25  1  0     0  0
 13 15  2  0     0  0
 13 16  1  0     0  0
 14 17  2  0     0  0
 14 18  1  0     0  0
 14 23  1  0     0  0
 15 17  1  0     0  0
 16 18  2  0     0  0
 19 25  1  0     0  0
 20 26  1  0     0  0
 21 27  1  0     0  0
 24 28  1  0     0  0
 26 27  1  0     0  0
 28 29  1  0     0  0
 29 30  1  0     0  0
M  END
> <standard_type>
pIC50

> <# Confs.>
25

> <canonical_smiles>
CCCCC1=NC(Cl)=C(CC(OC)=O)N1CC2=CC=C(NC(CCC(O)=O)=O)C=C2

> <standard_relation>
=

> <Publication_ID>
nan

> <predicted_activity_value>
5.0

> <actual_activity_value>
4.337242168318426

> <Compound>
23

> <standard_units>
nM

> hash
17748807188493933904

$$$$
22
XXILIB    08252103513D 0   0.00000     0.00000

 30 31  0     1  0            999 V2000
   -3.5748    0.0265   -1.4596 Cl  0  0  0  0  0  1           0  0  0
    0.1941    2.3706   -2.3099 O   0  0  0  0  0  2           0  0  0
    5.3537    7.1414    7.0747 O   0  0  0  0  0  2           0  0  0
    5.2139    2.7316    4.8724 O   0  0  0  0  0  2           0  0  0
   -0.2113    1.4000   -4.3592 O   0  0  0  0  0  2           0  0  0
    7.0219    6.0330    8.1514 O   0  0  0  0  0  2           0  0  0
    0.0000   -0.0000    0.0000 N   0  0  0  0  0  3           0  0  0
   -2.0822    0.0079    0.7623 N   0  0  0  0  0  3           0  0  0
    3.4961    3.8168    3.7374 N   0  0  0  0  0  3           0  0  0
   -2.0956    0.0071   -0.6094 C   0  0  0  0  0  4           0  0  0
   -0.8139    0.0000    1.1146 C   0  0  0  0  0  4           0  0  0
   -0.8093   -0.0085   -1.1246 C   0  0  0  0  0  4           0  0  0
    3.0209    2.8509    2.8293 C   0  0  0  0  0  4           0  0  0
    1.9910    0.9879    0.9879 C   0  0  0  0  0  4           0  0  0
    1.9625    3.2029    1.9862 C   0  0  0  0  0  4           0  0  0
    3.5692    1.5670    2.7457 C   0  0  0  0  0  4           0  0  0
    1.4527    2.2783    1.0719 C   0  0  0  0  0  4           0  0  0
    3.0588    0.6449    1.8274 C   0  0  0  0  0  4           0  0  0
   -0.0568    1.3933   -3.0026 C   0  0  0  0  0  4           0  0  0
    6.0239    6.1300    7.2372 C   0  0  0  0  0  4           0  0  0
    4.5169    3.7234    4.6667 C   0  0  0  0  0  4           0  0  0
   -0.0593    2.6768   -4.9878 C   0  0  0  0  0  4           0  0  0
    1.4499    0.0000    0.0000 C   0  0  0  0  0  4           0  0  0
   -0.3297   -0.0006    2.5204 C   0  0  0  0  0  4           0  0  0
   -0.2528   -0.0150   -2.5008 C   0  0  0  0  0  4           0  0  0
    5.8340    4.8598    6.4577 C   0  0  0  0  0  4           0  0  0
    4.7077    4.9993    5.4497 C   0  0  0  0  0  4           0  0  0
   -1.0844   -0.9983    3.3936 C   0  0  0  0  0  4           0  0  0
   -0.5947   -1.0068    4.8395 C   0  0  0  0  0  4           0  0  0
   -1.3462   -2.0012    5.7120 C   0  0  0  0  0  4           0  0  0
  1 10  1  0     0  0
  2 19  2  0     0  0
  3 20  2  0     0  0
  4 21  2  0     0  0
  5 19  1  0     0  0
  5 22  1  0     0  0
  6 20  1  0     0  0
  7 11  1  0     0  0
  7 12  1  0     0  0
  7 23  1  0     0  0
  8 10  1  0     0  0
  8 11  2  0     0  0
  9 13  1  0     0  0
  9 21  1  0     0  0
 10 12  2  0     0  0
 11 24  1  0     0  0
 12 25  1  0     0  0
 13 15  2  0     0  0
 13 16  1  0     0  0
 14 17  2  0     0  0
 14 18  1  0     0  0
 14 23  1  0     0  0
 15 17  1  0     0  0
 16 18  2  0     0  0
 19 25  1  0     0  0
 20 26  1  0     0  0
 21 27  1  0     0  0
 24 28  1  0     0  0
 26 27  1  0     0  0
 28 29  1  0     0  0
 29 30  1  0     0  0
M  END
> <standard_type>
pIC50

> <# Confs.>
25

> <canonical_smiles>
CCCCC1=NC(Cl)=C(CC(OC)=O)N1CC2=CC=C(NC(CCC(O)=O)=O)C=C2

> <standard_relation>
=

> <Publication_ID>
nan

> <predicted_activity_value>
5.0

> <actual_activity_value>
4.337242168318426

> <Compound>
23

> <standard_units>
nM

> hash
17748807188493933904

$$$$
22
XXILIB    08252103513D 0   0.00000     0.00000

 30 31  0     1  0            999 V2000
   -3.5748    0.0265   -1.4596 Cl  0  0  0  0  0  1           0  0  0
    0.1941    2.3706   -2.3099 O   0  0  0  0  0  2           0  0  0
    5.3890  -10.0386   -0.0093 O   0  0  0  0  0  2           0  0  0
    2.3404   -6.4899   -1.5678 O   0  0  0  0  0  2           0  0  0
   -0.2113    1.4000   -4.3592 O   0  0  0  0  0  2           0  0  0
    4.1584  -11.1391   -1.5729 O   0  0  0  0  0  2           0  0  0
    0.0000   -0.0000    0.0000 N   0  0  0  0  0  3           0  0  0
   -2.0822    0.0079    0.7623 N   0  0  0  0  0  3           0  0  0
    3.5683   -5.3136    0.0214 N   0  0  0  0  0  3           0  0  0
   -2.0956    0.0071   -0.6094 C   0  0  0  0  0  4           0  0  0
   -0.8139    0.0000    1.1146 C   0  0  0  0  0  4           0  0  0
   -0.8093   -0.0085   -1.1246 C   0  0  0  0  0  4           0  0  0
    3.0219   -4.0161   -0.0141 C   0  0  0  0  0  4           0  0  0
    1.9910   -1.3970    0.0000 C   0  0  0  0  0  4           0  0  0
    3.5549   -3.0524    0.8473 C   0  0  0  0  0  4           0  0  0
    1.9764   -3.6665   -0.8747 C   0  0  0  0  0  4           0  0  0
    3.0436   -1.7526    0.8531 C   0  0  0  0  0  4           0  0  0
    1.4690   -2.3640   -0.8689 C   0  0  0  0  0  4           0  0  0
   -0.0568    1.3933   -3.0026 C   0  0  0  0  0  4           0  0  0
    4.5003  -10.0423   -0.8511 C   0  0  0  0  0  4           0  0  0
    3.2263   -6.4326   -0.7170 C   0  0  0  0  0  4           0  0  0
   -0.0593    2.6768   -4.9878 C   0  0  0  0  0  4           0  0  0
    1.4499   -0.0000    0.0000 C   0  0  0  0  0  4           0  0  0
   -0.3297   -0.0006    2.5204 C   0  0  0  0  0  4           0  0  0
   -0.2528   -0.0150   -2.5008 C   0  0  0  0  0  4           0  0  0
    3.6638   -8.8434   -1.1974 C   0  0  0  0  0  4           0  0  0
    4.0666   -7.6369   -0.3691 C   0  0  0  0  0  4           0  0  0
   -1.4747   -0.0004    3.5285 C   0  0  0  0  0  4           0  0  0
   -0.9881   -0.0010    4.9754 C   0  0  0  0  0  4           0  0  0
   -2.1287   -0.0009    5.9824 C   0  0  0  0  0  4           0  0  0
  1 10  1  0     0  0
  2 19  2  0     0  0
  3 20  2  0     0  0
  4 21  2  0     0  0
  5 19  1  0     0  0
  5 22  1  0     0  0
  6 20  1  0     0  0
  7 11  1  0     0  0
  7 12  1  0     0  0
  7 23  1  0     0  0
  8 10  1  0     0  0
  8 11  2  0     0  0
  9 13  1  0     0  0
  9 21  1  0     0  0
 10 12  2  0     0  0
 11 24  1  0     0  0
 12 25  1  0     0  0
 13 15  2  0     0  0
 13 16  1  0     0  0
 14 17  2  0     0  0
 14 18  1  0     0  0
 14 23  1  0     0  0
 15 17  1  0     0  0
 16 18  2  0     0  0
 19 25  1  0     0  0
 20 26  1  0     0  0
 21 27  1  0     0  0
 24 28  1  0     0  0
 26 27  1  0     0  0
 28 29  1  0     0  0
 29 30  1  0     0  0
M  END
> <standard_type>
pIC50

> <# Confs.>
25

> <canonical_smiles>
CCCCC1=NC(Cl)=C(CC(OC)=O)N1CC2=CC=C(NC(CCC(O)=O)=O)C=C2

> <standard_relation>
=

> <Publication_ID>
nan

> <predicted_activity_value>
5.0

> <actual_activity_value>
4.337242168318426

> <Compound>
23

> <standard_units>
nM

> hash
17748807188493933904

$$$$
22
XXILIB    08252103513D 0   0.00000     0.00000

 30 31  0     1  0            999 V2000
   -3.5748    0.0265   -1.4596 Cl  0  0  0  0  0  1           0  0  0
   -0.3007   -2.4446   -2.3532 O   0  0  0  0  0  2           0  0  0
    5.3890   10.0386    0.0093 O   0  0  0  0  0  2           0  0  0
    2.3404    6.4899    1.5678 O   0  0  0  0  0  2           0  0  0
    0.4671   -1.3863   -4.2496 O   0  0  0  0  0  2           0  0  0
    4.1584   11.1391    1.5729 O   0  0  0  0  0  2           0  0  0
    0.0000   -0.0000    0.0000 N   0  0  0  0  0  3           0  0  0
   -2.0822    0.0079    0.7623 N   0  0  0  0  0  3           0  0  0
    3.5683    5.3136   -0.0214 N   0  0  0  0  0  3           0  0  0
   -2.0956    0.0071   -0.6094 C   0  0  0  0  0  4           0  0  0
   -0.8139    0.0000    1.1146 C   0  0  0  0  0  4           0  0  0
   -0.8093   -0.0085   -1.1246 C   0  0  0  0  0  4           0  0  0
    3.0219    4.0161    0.0141 C   0  0  0  0  0  4           0  0  0
    1.9910    1.3970    0.0000 C   0  0  0  0  0  4           0  0  0
    3.5549    3.0524   -0.8473 C   0  0  0  0  0  4           0  0  0
    1.9764    3.6665    0.8747 C   0  0  0  0  0  4           0  0  0
    3.0436    1.7526   -0.8531 C   0  0  0  0  0  4           0  0  0
    1.4690    2.3640    0.8689 C   0  0  0  0  0  4           0  0  0
   -0.0496   -1.4279   -2.9865 C   0  0  0  0  0  4           0  0  0
    4.5003   10.0423    0.8511 C   0  0  0  0  0  4           0  0  0
    3.2263    6.4326    0.7170 C   0  0  0  0  0  4           0  0  0
    0.7230   -2.6601   -4.8501 C   0  0  0  0  0  4           0  0  0
    1.4499    0.0000   -0.0000 C   0  0  0  0  0  4           0  0  0
   -0.3297   -0.0006    2.5204 C   0  0  0  0  0  4           0  0  0
   -0.2528   -0.0150   -2.5008 C   0  0  0  0  0  4           0  0  0
    3.6638    8.8434    1.1974 C   0  0  0  0  0  4           0  0  0
    4.0666    7.6369    0.3691 C   0  0  0  0  0  4           0  0  0
   -0.1413   -1.4118    3.0685 C   0  0  0  0  0  4           0  0  0
    0.3559   -1.4236    4.5118 C   0  0  0  0  0  4           0  0  0
    1.6983   -0.7275    4.6800 C   0  0  0  0  0  4           0  0  0
  1 10  1  0     0  0
  2 19  2  0     0  0
  3 20  2  0     0  0
  4 21  2  0     0  0
  5 19  1  0     0  0
  5 22  1  0     0  0
  6 20  1  0     0  0
  7 11  1  0     0  0
  7 12  1  0     0  0
  7 23  1  0     0  0
  8 10  1  0     0  0
  8 11  2  0     0  0
  9 13  1  0     0  0
  9 21  1  0     0  0
 10 12  2  0     0  0
 11 24  1  0     0  0
 12 25  1  0     0  0
 13 15  2  0     0  0
 13 16  1  0     0  0
 14 17  2  0     0  0
 14 18  1  0     0  0
 14 23  1  0     0  0
 15 17  1  0     0  0
 16 18  2  0     0  0
 19 25  1  0     0  0
 20 26  1  0     0  0
 21 27  1  0     0  0
 24 28  1  0     0  0
 26 27  1  0     0  0
 28 29  1  0     0  0
 29 30  1  0     0  0
M  END
> <standard_type>
pIC50

> <# Confs.>
25

> <canonical_smiles>
CCCCC1=NC(Cl)=C(CC(OC)=O)N1CC2=CC=C(NC(CCC(O)=O)=O)C=C2

> <standard_relation>
=

> <Publication_ID>
nan

> <predicted_activity_value>
5.0

> <actual_activity_value>
4.337242168318426

> <Compound>
23

> <standard_units>
nM

> hash
17748807188493933904

$$$$
22
XXILIB    08252103513D 0   0.00000     0.00000

 30 31  0     1  0            999 V2000
   -3.5748    0.0265   -1.4596 Cl  0  0  0  0  0  1           0  0  0
   -0.7268    2.3661   -2.6823 O   0  0  0  0  0  2           0  0  0
    5.3890   10.0386    0.0093 O   0  0  0  0  0  2           0  0  0
    2.3404    6.4899    1.5678 O   0  0  0  0  0  2           0  0  0
    0.9898    1.4038   -3.8794 O   0  0  0  0  0  2           0  0  0
    4.1584   11.1391    1.5729 O   0  0  0  0  0  2           0  0  0
    0.0000   -0.0000    0.0000 N   0  0  0  0  0  3           0  0  0
   -2.0822    0.0079    0.7623 N   0  0  0  0  0  3           0  0  0
    3.5683    5.3136   -0.0214 N   0  0  0  0  0  3           0  0  0
   -2.0956    0.0071   -0.6094 C   0  0  0  0  0  4           0  0  0
   -0.8139    0.0000    1.1146 C   0  0  0  0  0  4           0  0  0
   -0.8093   -0.0085   -1.1246 C   0  0  0  0  0  4           0  0  0
    3.0219    4.0161    0.0141 C   0  0  0  0  0  4           0  0  0
    1.9910    1.3970    0.0000 C   0  0  0  0  0  4           0  0  0
    3.5549    3.0524   -0.8473 C   0  0  0  0  0  4           0  0  0
    1.9764    3.6665    0.8747 C   0  0  0  0  0  4           0  0  0
    3.0436    1.7526   -0.8531 C   0  0  0  0  0  4           0  0  0
    1.4690    2.3640    0.8689 C   0  0  0  0  0  4           0  0  0
   -0.0568    1.3933   -3.0026 C   0  0  0  0  0  4           0  0  0
    4.5003   10.0423    0.8511 C   0  0  0  0  0  4           0  0  0
    3.2263    6.4326    0.7170 C   0  0  0  0  0  4           0  0  0
    1.2986    2.6791   -4.4511 C   0  0  0  0  0  4           0  0  0
    1.4499    0.0000   -0.0000 C   0  0  0  0  0  4           0  0  0
   -0.3297   -0.0006    2.5204 C   0  0  0  0  0  4           0  0  0
   -0.2528   -0.0150   -2.5008 C   0  0  0  0  0  4           0  0  0
    3.6638    8.8434    1.1974 C   0  0  0  0  0  4           0  0  0
    4.0666    7.6369    0.3691 C   0  0  0  0  0  4           0  0  0
   -1.0836    0.9972    3.3942 C   0  0  0  0  0  4           0  0  0
   -0.5939    1.0045    4.8401 C   0  0  0  0  0  4           0  0  0
   -1.3447    1.9990    5.7131 C   0  0  0  0  0  4           0  0  0
  1 10  1  0     0  0
  2 19  2  0     0  0
  3 20  2  0     0  0
  4 21  2  0     0  0
  5 19  1  0     0  0
  5 22  1  0     0  0
  6 20  1  0     0  0
  7 11  1  0     0  0
  7 12  1  0     0  0
  7 23  1  0     0  0
  8 10  1  0     0  0
  8 11  2  0     0  0
  9 13  1  0     0  0
  9 21  1  0     0  0
 10 12  2  0     0  0
 11 24  1  0     0  0
 12 25  1  0     0  0
 13 15  2  0     0  0
 13 16  1  0     0  0
 14 17  2  0     0  0
 14 18  1  0     0  0
 14 23  1  0     0  0
 15 17  1  0     0  0
 16 18  2  0     0  0
 19 25  1  0     0  0
 20 26  1  0     0  0
 21 27  1  0     0  0
 24 28  1  0     0  0
 26 27  1  0     0  0
 28 29  1  0     0  0
 29 30  1  0     0  0
M  END
> <standard_type>
pIC50

> <# Confs.>
25

> <canonical_smiles>
CCCCC1=NC(Cl)=C(CC(OC)=O)N1CC2=CC=C(NC(CCC(O)=O)=O)C=C2

> <standard_relation>
=

> <Publication_ID>
nan

> <predicted_activity_value>
5.0

> <actual_activity_value>
4.337242168318426

> <Compound>
23

> <standard_units>
nM

> hash
17748807188493933904

$$$$
22
XXILIB    08252103513D 0   0.00000     0.00000

 30 31  0     1  0            999 V2000
   -3.5748    0.0265   -1.4596 Cl  0  0  0  0  0  1           0  0  0
    0.1941    2.3706   -2.3099 O   0  0  0  0  0  2           0  0  0
    5.3890  -10.0386   -0.0093 O   0  0  0  0  0  2           0  0  0
    2.3404   -6.4899   -1.5678 O   0  0  0  0  0  2           0  0  0
   -0.2113    1.4000   -4.3592 O   0  0  0  0  0  2           0  0  0
    4.1584  -11.1391   -1.5729 O   0  0  0  0  0  2           0  0  0
    0.0000   -0.0000    0.0000 N   0  0  0  0  0  3           0  0  0
   -2.0822    0.0079    0.7623 N   0  0  0  0  0  3           0  0  0
    3.5683   -5.3136    0.0214 N   0  0  0  0  0  3           0  0  0
   -2.0956    0.0071   -0.6094 C   0  0  0  0  0  4           0  0  0
   -0.8139    0.0000    1.1146 C   0  0  0  0  0  4           0  0  0
   -0.8093   -0.0085   -1.1246 C   0  0  0  0  0  4           0  0  0
    3.0219   -4.0161   -0.0141 C   0  0  0  0  0  4           0  0  0
    1.9910   -1.3970    0.0000 C   0  0  0  0  0  4           0  0  0
    3.5549   -3.0524    0.8473 C   0  0  0  0  0  4           0  0  0
    1.9764   -3.6665   -0.8747 C   0  0  0  0  0  4           0  0  0
    3.0436   -1.7526    0.8531 C   0  0  0  0  0  4           0  0  0
    1.4690   -2.3640   -0.8689 C   0  0  0  0  0  4           0  0  0
   -0.0568    1.3933   -3.0026 C   0  0  0  0  0  4           0  0  0
    4.5003  -10.0423   -0.8511 C   0  0  0  0  0  4           0  0  0
    3.2263   -6.4326   -0.7170 C   0  0  0  0  0  4           0  0  0
   -0.0593    2.6768   -4.9878 C   0  0  0  0  0  4           0  0  0
    1.4499   -0.0000    0.0000 C   0  0  0  0  0  4           0  0  0
   -0.3297   -0.0006    2.5204 C   0  0  0  0  0  4           0  0  0
   -0.2528   -0.0150   -2.5008 C   0  0  0  0  0  4           0  0  0
    3.6638   -8.8434   -1.1974 C   0  0  0  0  0  4           0  0  0
    4.0666   -7.6369   -0.3691 C   0  0  0  0  0  4           0  0  0
   -0.1413   -1.4118    3.0685 C   0  0  0  0  0  4           0  0  0
   -1.4329   -2.2254    3.0624 C   0  0  0  0  0  4           0  0  0
   -1.2471   -3.6332    3.6087 C   0  0  0  0  0  4           0  0  0
  1 10  1  0     0  0
  2 19  2  0     0  0
  3 20  2  0     0  0
  4 21  2  0     0  0
  5 19  1  0     0  0
  5 22  1  0     0  0
  6 20  1  0     0  0
  7 11  1  0     0  0
  7 12  1  0     0  0
  7 23  1  0     0  0
  8 10  1  0     0  0
  8 11  2  0     0  0
  9 13  1  0     0  0
  9 21  1  0     0  0
 10 12  2  0     0  0
 11 24  1  0     0  0
 12 25  1  0     0  0
 13 15  2  0     0  0
 13 16  1  0     0  0
 14 17  2  0     0  0
 14 18  1  0     0  0
 14 23  1  0     0  0
 15 17  1  0     0  0
 16 18  2  0     0  0
 19 25  1  0     0  0
 20 26  1  0     0  0
 21 27  1  0     0  0
 24 28  1  0     0  0
 26 27  1  0     0  0
 28 29  1  0     0  0
 29 30  1  0     0  0
M  END
> <standard_type>
pIC50

> <# Confs.>
25

> <canonical_smiles>
CCCCC1=NC(Cl)=C(CC(OC)=O)N1CC2=CC=C(NC(CCC(O)=O)=O)C=C2

> <standard_relation>
=

> <Publication_ID>
nan

> <predicted_activity_value>
5.0

> <actual_activity_value>
4.337242168318426

> <Compound>
23

> <standard_units>
nM

> hash
17748807188493933904

$$$$
22
XXILIB    08252103513D 0   0.00000     0.00000

 30 31  0     1  0            999 V2000
   -3.5748    0.0265   -1.4596 Cl  0  0  0  0  0  1           0  0  0
    0.2063   -2.3958   -2.2827 O   0  0  0  0  0  2           0  0  0
    5.3078   10.0700    0.0268 O   0  0  0  0  0  2           0  0  0
    3.7164    5.9569   -2.1790 O   0  0  0  0  0  2           0  0  0
   -0.1927   -1.4488   -4.3441 O   0  0  0  0  0  2           0  0  0
    5.5057   10.6172   -2.1714 O   0  0  0  0  0  2           0  0  0
    0.0000   -0.0000    0.0000 N   0  0  0  0  0  3           0  0  0
   -2.0822    0.0079    0.7623 N   0  0  0  0  0  3           0  0  0
    3.4931    5.3428    0.0548 N   0  0  0  0  0  3           0  0  0
   -2.0956    0.0071   -0.6094 C   0  0  0  0  0  4           0  0  0
   -0.8139    0.0000    1.1146 C   0  0  0  0  0  4           0  0  0
   -0.8093   -0.0085   -1.1246 C   0  0  0  0  0  4           0  0  0
    2.9883    4.0291    0.0008 C   0  0  0  0  0  4           0  0  0
    1.9910    1.3970    0.0000 C   0  0  0  0  0  4           0  0  0
    2.7440    3.3665    1.2075 C   0  0  0  0  0  4           0  0  0
    2.7263    3.3760   -1.2078 C   0  0  0  0  0  4           0  0  0
    2.2481    2.0608    1.2064 C   0  0  0  0  0  4           0  0  0
    2.2270    2.0704   -1.2056 C   0  0  0  0  0  4           0  0  0
   -0.0496   -1.4279   -2.9865 C   0  0  0  0  0  4           0  0  0
    5.1854    9.7769   -1.1554 C   0  0  0  0  0  4           0  0  0
    3.8153    6.2044   -0.9787 C   0  0  0  0  0  4           0  0  0
   -0.0216   -2.7296   -4.9596 C   0  0  0  0  0  4           0  0  0
    1.4499   -0.0000    0.0000 C   0  0  0  0  0  4           0  0  0
   -0.3297   -0.0006    2.5204 C   0  0  0  0  0  4           0  0  0
   -0.2528   -0.0150   -2.5008 C   0  0  0  0  0  4           0  0  0
    4.6728    8.4525   -1.6456 C   0  0  0  0  0  4           0  0  0
    4.3302    7.5348   -0.4862 C   0  0  0  0  0  4           0  0  0
   -1.0844   -0.9983    3.3936 C   0  0  0  0  0  4           0  0  0
   -0.5947   -1.0068    4.8395 C   0  0  0  0  0  4           0  0  0
   -1.3462   -2.0012    5.7120 C   0  0  0  0  0  4           0  0  0
  1 10  1  0     0  0
  2 19  2  0     0  0
  3 20  2  0     0  0
  4 21  2  0     0  0
  5 19  1  0     0  0
  5 22  1  0     0  0
  6 20  1  0     0  0
  7 11  1  0     0  0
  7 12  1  0     0  0
  7 23  1  0     0  0
  8 10  1  0     0  0
  8 11  2  0     0  0
  9 13  1  0     0  0
  9 21  1  0     0  0
 10 12  2  0     0  0
 11 24  1  0     0  0
 12 25  1  0     0  0
 13 15  2  0     0  0
 13 16  1  0     0  0
 14 17  2  0     0  0
 14 18  1  0     0  0
 14 23  1  0     0  0
 15 17  1  0     0  0
 16 18  2  0     0  0
 19 25  1  0     0  0
 20 26  1  0     0  0
 21 27  1  0     0  0
 24 28  1  0     0  0
 26 27  1  0     0  0
 28 29  1  0     0  0
 29 30  1  0     0  0
M  END
> <standard_type>
pIC50

> <# Confs.>
25

> <canonical_smiles>
CCCCC1=NC(Cl)=C(CC(OC)=O)N1CC2=CC=C(NC(CCC(O)=O)=O)C=C2

> <standard_relation>
=

> <Publication_ID>
nan

> <predicted_activity_value>
5.0

> <actual_activity_value>
4.337242168318426

> <Compound>
23

> <standard_units>
nM

> hash
17748807188493933904

$$$$
20
XXILIB    08252103513D 0   0.00000     0.00000

 25 26  0     1  0            999 V2000
   -3.5561   -0.1021   -1.4815 Cl  0  0  0  0  0  1           0  0  0
    0.9270   -2.0720   -2.8869 O   0  0  0  0  0  2           0  0  0
    3.5178    5.3598    2.3712 O   0  0  0  0  0  2           0  0  0
   -1.2406   -1.9968   -3.5558 O   0  0  0  0  0  2           0  0  0
    4.2702    7.2368    1.3406 O   0  0  0  0  0  2           0  0  0
    0.0000    0.0000    0.0000 N   0  0  0  0  0  3           0  0  0
   -2.0838   -0.0300    0.7699 N   0  0  0  0  0  3           0  0  0
   -2.0979   -0.0532   -0.5999 C   0  0  0  0  0  4           0  0  0
   -0.8128    0.0000    1.1169 C   0  0  0  0  0  4           0  0  0
   -0.8147   -0.0368   -1.1149 C   0  0  0  0  0  4           0  0  0
    1.9917    1.3968    0.0000 C   0  0  0  0  0  4           0  0  0
    3.0110    4.0265   -0.0437 C   0  0  0  0  0  4           0  0  0
    1.1251    2.4973    0.0000 C   0  0  0  0  0  4           0  0  0
    3.3732    1.6248   -0.0249 C   0  0  0  0  0  4           0  0  0
    1.6298    3.7996   -0.0153 C   0  0  0  0  0  4           0  0  0
    3.8783    2.9272   -0.0408 C   0  0  0  0  0  4           0  0  0
   -0.1274   -1.4582   -2.9985 C   0  0  0  0  0  4           0  0  0
    3.7622    5.9791    1.3428 C   0  0  0  0  0  4           0  0  0
    1.4501    0.0000   -0.0000 C   0  0  0  0  0  4           0  0  0
   -0.3205    0.0302    2.5193 C   0  0  0  0  0  4           0  0  0
   -0.3326   -0.0479   -2.5190 C   0  0  0  0  0  4           0  0  0
    3.5536    5.4261   -0.0398 C   0  0  0  0  0  4           0  0  0
   -0.1005   -1.3688    3.0862 C   0  0  0  0  0  4           0  0  0
    0.4068   -1.3985    4.5287 C   0  0  0  0  0  4           0  0  0
    0.6134   -2.8104    5.0569 C   0  0  0  0  0  4           0  0  0
  1  8  1  0     0  0
  2 17  2  0     0  0
  3 18  2  0     0  0
  4 17  1  0     0  0
  5 18  1  0     0  0
  6  9  1  0     0  0
  6 10  1  0     0  0
  6 19  1  0     0  0
  7  8  1  0     0  0
  7  9  2  0     0  0
  8 10  2  0     0  0
  9 20  1  0     0  0
 10 21  1  0     0  0
 11 13  2  0     0  0
 11 14  1  0     0  0
 11 19  1  0     0  0
 12 15  2  0     0  0
 12 16  1  0     0  0
 12 22  1  0     0  0
 13 15  1  0     0  0
 14 16  2  0     0  0
 17 21  1  0     0  0
 18 22  1  0     0  0
 20 23  1  0     0  0
 23 24  1  0     0  0
 24 25  1  0     0  0
M  END
> <standard_type>
pIC50

> <# Confs.>
25

> <canonical_smiles>
CCCCC1=NC(Cl)=C(CC(O)=O)N1CC2=CC=C(CC(O)=O)C=C2

> <standard_relation>
=

> <Publication_ID>
nan

> <predicted_activity_value>
5.0

> <actual_activity_value>
4.886056647693163

> <Compound>
21

> <standard_units>
nM

> hash
15933815746296400870

$$$$
20
XXILIB    08252103513D 0   0.00000     0.00000

 25 26  0     1  0            999 V2000
   -3.5561   -0.1021   -1.4815 Cl  0  0  0  0  0  1           0  0  0
    0.5439    2.1992   -2.5496 O   0  0  0  0  0  2           0  0  0
    3.5178   -5.3598   -2.3712 O   0  0  0  0  0  2           0  0  0
   -0.9570    1.5898   -4.1393 O   0  0  0  0  0  2           0  0  0
    4.2702   -7.2368   -1.3406 O   0  0  0  0  0  2           0  0  0
    0.0000    0.0000    0.0000 N   0  0  0  0  0  3           0  0  0
   -2.0838   -0.0300    0.7699 N   0  0  0  0  0  3           0  0  0
   -2.0979   -0.0532   -0.5999 C   0  0  0  0  0  4           0  0  0
   -0.8128    0.0000    1.1169 C   0  0  0  0  0  4           0  0  0
   -0.8147   -0.0368   -1.1149 C   0  0  0  0  0  4           0  0  0
    1.9917   -1.3968    0.0000 C   0  0  0  0  0  4           0  0  0
    3.0110   -4.0265    0.0437 C   0  0  0  0  0  4           0  0  0
    1.1251   -2.4973   -0.0000 C   0  0  0  0  0  4           0  0  0
    3.3732   -1.6248    0.0249 C   0  0  0  0  0  4           0  0  0
    1.6298   -3.7996    0.0153 C   0  0  0  0  0  4           0  0  0
    3.8783   -2.9272    0.0408 C   0  0  0  0  0  4           0  0  0
   -0.1932    1.3544   -3.0434 C   0  0  0  0  0  4           0  0  0
    3.7622   -5.9791   -1.3428 C   0  0  0  0  0  4           0  0  0
    1.4501   -0.0000    0.0000 C   0  0  0  0  0  4           0  0  0
   -0.3205    0.0302    2.5193 C   0  0  0  0  0  4           0  0  0
   -0.3326   -0.0479   -2.5190 C   0  0  0  0  0  4           0  0  0
    3.5536   -5.4261    0.0398 C   0  0  0  0  0  4           0  0  0
   -0.1569    1.4528    3.0452 C   0  0  0  0  0  4           0  0  0
    0.3480    1.5447    4.4859 C   0  0  0  0  0  4           0  0  0
    0.4977    2.9785    4.9727 C   0  0  0  0  0  4           0  0  0
  1  8  1  0     0  0
  2 17  2  0     0  0
  3 18  2  0     0  0
  4 17  1  0     0  0
  5 18  1  0     0  0
  6  9  1  0     0  0
  6 10  1  0     0  0
  6 19  1  0     0  0
  7  8  1  0     0  0
  7  9  2  0     0  0
  8 10  2  0     0  0
  9 20  1  0     0  0
 10 21  1  0     0  0
 11 13  2  0     0  0
 11 14  1  0     0  0
 11 19  1  0     0  0
 12 15  2  0     0  0
 12 16  1  0     0  0
 12 22  1  0     0  0
 13 15  1  0     0  0
 14 16  2  0     0  0
 17 21  1  0     0  0
 18 22  1  0     0  0
 20 23  1  0     0  0
 23 24  1  0     0  0
 24 25  1  0     0  0
M  END
> <standard_type>
pIC50

> <# Confs.>
25

> <canonical_smiles>
CCCCC1=NC(Cl)=C(CC(O)=O)N1CC2=CC=C(CC(O)=O)C=C2

> <standard_relation>
=

> <Publication_ID>
nan

> <predicted_activity_value>
5.0

> <actual_activity_value>
4.886056647693163

> <Compound>
21

> <standard_units>
nM

> hash
15933815746296400870

$$$$
20
XXILIB    08252103513D 0   0.00000     0.00000

 25 26  0     1  0            999 V2000
   -3.5561   -0.1021   -1.4815 Cl  0  0  0  0  0  1           0  0  0
    0.9270   -2.0720   -2.8869 O   0  0  0  0  0  2           0  0  0
    5.1534    4.7391   -1.7267 O   0  0  0  0  0  2           0  0  0
   -1.2406   -1.9968   -3.5558 O   0  0  0  0  0  2           0  0  0
    5.1808    6.8914   -1.0069 O   0  0  0  0  0  2           0  0  0
    0.0000    0.0000    0.0000 N   0  0  0  0  0  3           0  0  0
   -2.0838   -0.0300    0.7699 N   0  0  0  0  0  3           0  0  0
   -2.0979   -0.0532   -0.5999 C   0  0  0  0  0  4           0  0  0
   -0.8128    0.0000    1.1169 C   0  0  0  0  0  4           0  0  0
   -0.8147   -0.0368   -1.1149 C   0  0  0  0  0  4           0  0  0
    1.9917    1.3968    0.0000 C   0  0  0  0  0  4           0  0  0
    3.0399    4.0154   -0.0310 C   0  0  0  0  0  4           0  0  0
    1.4544    2.3697   -0.8526 C   0  0  0  0  0  4           0  0  0
    3.0604    1.7461    0.8349 C   0  0  0  0  0  4           0  0  0
    1.9692    3.6680   -0.8635 C   0  0  0  0  0  4           0  0  0
    3.5759    3.0445    0.8238 C   0  0  0  0  0  4           0  0  0
   -0.1274   -1.4582   -2.9985 C   0  0  0  0  0  4           0  0  0
    4.7092    5.6196   -0.9999 C   0  0  0  0  0  4           0  0  0
    1.4501   -0.0000   -0.0000 C   0  0  0  0  0  4           0  0  0
   -0.3205    0.0302    2.5193 C   0  0  0  0  0  4           0  0  0
   -0.3326   -0.0479   -2.5190 C   0  0  0  0  0  4           0  0  0
    3.5799    5.4159   -0.0283 C   0  0  0  0  0  4           0  0  0
   -0.1005   -1.3688    3.0862 C   0  0  0  0  0  4           0  0  0
    0.4068   -1.3985    4.5287 C   0  0  0  0  0  4           0  0  0
    0.6134   -2.8104    5.0569 C   0  0  0  0  0  4           0  0  0
  1  8  1  0     0  0
  2 17  2  0     0  0
  3 18  2  0     0  0
  4 17  1  0     0  0
  5 18  1  0     0  0
  6  9  1  0     0  0
  6 10  1  0     0  0
  6 19  1  0     0  0
  7  8  1  0     0  0
  7  9  2  0     0  0
  8 10  2  0     0  0
  9 20  1  0     0  0
 10 21  1  0     0  0
 11 13  2  0     0  0
 11 14  1  0     0  0
 11 19  1  0     0  0
 12 15  2  0     0  0
 12 16  1  0     0  0
 12 22  1  0     0  0
 13 15  1  0     0  0
 14 16  2  0     0  0
 17 21  1  0     0  0
 18 22  1  0     0  0
 20 23  1  0     0  0
 23 24  1  0     0  0
 24 25  1  0     0  0
M  END
> <standard_type>
pIC50

> <# Confs.>
25

> <canonical_smiles>
CCCCC1=NC(Cl)=C(CC(O)=O)N1CC2=CC=C(CC(O)=O)C=C2

> <standard_relation>
=

> <Publication_ID>
nan

> <predicted_activity_value>
5.0

> <actual_activity_value>
4.886056647693163

> <Compound>
21

> <standard_units>
nM

> hash
15933815746296400870

$$$$
20
XXILIB    08252103513D 0   0.00000     0.00000

 25 26  0     1  0            999 V2000
   -3.5561   -0.1021   -1.4815 Cl  0  0  0  0  0  1           0  0  0
    0.6480   -2.2515   -2.4786 O   0  0  0  0  0  2           0  0  0
    3.5178    5.3598    2.3712 O   0  0  0  0  0  2           0  0  0
   -0.9063   -1.7758   -4.0626 O   0  0  0  0  0  2           0  0  0
    4.2702    7.2368    1.3406 O   0  0  0  0  0  2           0  0  0
    0.0000    0.0000    0.0000 N   0  0  0  0  0  3           0  0  0
   -2.0838   -0.0300    0.7699 N   0  0  0  0  0  3           0  0  0
   -2.0979   -0.0532   -0.5999 C   0  0  0  0  0  4           0  0  0
   -0.8128    0.0000    1.1169 C   0  0  0  0  0  4           0  0  0
   -0.8147   -0.0368   -1.1149 C   0  0  0  0  0  4           0  0  0
    1.9917    1.3968    0.0000 C   0  0  0  0  0  4           0  0  0
    3.0110    4.0265   -0.0437 C   0  0  0  0  0  4           0  0  0
    1.1251    2.4973    0.0000 C   0  0  0  0  0  4           0  0  0
    3.3732    1.6248   -0.0249 C   0  0  0  0  0  4           0  0  0
    1.6298    3.7996   -0.0153 C   0  0  0  0  0  4           0  0  0
    3.8783    2.9272   -0.0408 C   0  0  0  0  0  4           0  0  0
   -0.1274   -1.4582   -2.9985 C   0  0  0  0  0  4           0  0  0
    3.7622    5.9791    1.3428 C   0  0  0  0  0  4           0  0  0
    1.4501    0.0000   -0.0000 C   0  0  0  0  0  4           0  0  0
   -0.3205    0.0302    2.5193 C   0  0  0  0  0  4           0  0  0
   -0.3326   -0.0479   -2.5190 C   0  0  0  0  0  4           0  0  0
    3.5536    5.4261   -0.0398 C   0  0  0  0  0  4           0  0  0
   -0.1005   -1.3688    3.0862 C   0  0  0  0  0  4           0  0  0
   -1.3525   -2.2465    3.1190 C   0  0  0  0  0  4           0  0  0
   -1.0918   -3.6323    3.6906 C   0  0  0  0  0  4           0  0  0
  1  8  1  0     0  0
  2 17  2  0     0  0
  3 18  2  0     0  0
  4 17  1  0     0  0
  5 18  1  0     0  0
  6  9  1  0     0  0
  6 10  1  0     0  0
  6 19  1  0     0  0
  7  8  1  0     0  0
  7  9  2  0     0  0
  8 10  2  0     0  0
  9 20  1  0     0  0
 10 21  1  0     0  0
 11 13  2  0     0  0
 11 14  1  0     0  0
 11 19  1  0     0  0
 12 15  2  0     0  0
 12 16  1  0     0  0
 12 22  1  0     0  0
 13 15  1  0     0  0
 14 16  2  0     0  0
 17 21  1  0     0  0
 18 22  1  0     0  0
 20 23  1  0     0  0
 23 24  1  0     0  0
 24 25  1  0     0  0
M  END
> <standard_type>
pIC50

> <# Confs.>
25

> <canonical_smiles>
CCCCC1=NC(Cl)=C(CC(O)=O)N1CC2=CC=C(CC(O)=O)C=C2

> <standard_relation>
=

> <Publication_ID>
nan

> <predicted_activity_value>
5.0

> <actual_activity_value>
4.886056647693163

> <Compound>
21

> <standard_units>
nM

> hash
15933815746296400870

$$$$
20
XXILIB    08252103513D 0   0.00000     0.00000

 25 26  0     1  0            999 V2000
   -3.5561   -0.1021   -1.4815 Cl  0  0  0  0  0  1           0  0  0
    0.9270   -2.0720   -2.8869 O   0  0  0  0  0  2           0  0  0
    3.5178    5.3598    2.3712 O   0  0  0  0  0  2           0  0  0
   -1.2406   -1.9968   -3.5558 O   0  0  0  0  0  2           0  0  0
    4.2702    7.2368    1.3406 O   0  0  0  0  0  2           0  0  0
    0.0000    0.0000    0.0000 N   0  0  0  0  0  3           0  0  0
   -2.0838   -0.0300    0.7699 N   0  0  0  0  0  3           0  0  0
   -2.0979   -0.0532   -0.5999 C   0  0  0  0  0  4           0  0  0
   -0.8128    0.0000    1.1169 C   0  0  0  0  0  4           0  0  0
   -0.8147   -0.0368   -1.1149 C   0  0  0  0  0  4           0  0  0
    1.9917    1.3968    0.0000 C   0  0  0  0  0  4           0  0  0
    3.0110    4.0265   -0.0437 C   0  0  0  0  0  4           0  0  0
    1.1251    2.4973    0.0000 C   0  0  0  0  0  4           0  0  0
    3.3732    1.6248   -0.0249 C   0  0  0  0  0  4           0  0  0
    1.6298    3.7996   -0.0153 C   0  0  0  0  0  4           0  0  0
    3.8783    2.9272   -0.0408 C   0  0  0  0  0  4           0  0  0
   -0.1274   -1.4582   -2.9985 C   0  0  0  0  0  4           0  0  0
    3.7622    5.9791    1.3428 C   0  0  0  0  0  4           0  0  0
    1.4501    0.0000   -0.0000 C   0  0  0  0  0  4           0  0  0
   -0.3205    0.0302    2.5193 C   0  0  0  0  0  4           0  0  0
   -0.3326   -0.0479   -2.5190 C   0  0  0  0  0  4           0  0  0
    3.5536    5.4261   -0.0398 C   0  0  0  0  0  4           0  0  0
   -0.1569    1.4528    3.0452 C   0  0  0  0  0  4           0  0  0
    0.3480    1.5447    4.4859 C   0  0  0  0  0  4           0  0  0
    0.4977    2.9785    4.9727 C   0  0  0  0  0  4           0  0  0
  1  8  1  0     0  0
  2 17  2  0     0  0
  3 18  2  0     0  0
  4 17  1  0     0  0
  5 18  1  0     0  0
  6  9  1  0     0  0
  6 10  1  0     0  0
  6 19  1  0     0  0
  7  8  1  0     0  0
  7  9  2  0     0  0
  8 10  2  0     0  0
  9 20  1  0     0  0
 10 21  1  0     0  0
 11 13  2  0     0  0
 11 14  1  0     0  0
 11 19  1  0     0  0
 12 15  2  0     0  0
 12 16  1  0     0  0
 12 22  1  0     0  0
 13 15  1  0     0  0
 14 16  2  0     0  0
 17 21  1  0     0  0
 18 22  1  0     0  0
 20 23  1  0     0  0
 23 24  1  0     0  0
 24 25  1  0     0  0
M  END
> <standard_type>
pIC50

> <# Confs.>
25

> <canonical_smiles>
CCCCC1=NC(Cl)=C(CC(O)=O)N1CC2=CC=C(CC(O)=O)C=C2

> <standard_relation>
=

> <Publication_ID>
nan

> <predicted_activity_value>
5.0

> <actual_activity_value>
4.886056647693163

> <Compound>
21

> <standard_units>
nM

> hash
15933815746296400870

$$$$
20
XXILIB    08252103513D 0   0.00000     0.00000

 25 26  0     1  0            999 V2000
   -3.5561   -0.1021   -1.4815 Cl  0  0  0  0  0  1           0  0  0
    0.9270   -2.0720   -2.8869 O   0  0  0  0  0  2           0  0  0
    5.1534    4.7391   -1.7267 O   0  0  0  0  0  2           0  0  0
   -1.2406   -1.9968   -3.5558 O   0  0  0  0  0  2           0  0  0
    5.1808    6.8914   -1.0069 O   0  0  0  0  0  2           0  0  0
    0.0000    0.0000    0.0000 N   0  0  0  0  0  3           0  0  0
   -2.0838   -0.0300    0.7699 N   0  0  0  0  0  3           0  0  0
   -2.0979   -0.0532   -0.5999 C   0  0  0  0  0  4           0  0  0
   -0.8128    0.0000    1.1169 C   0  0  0  0  0  4           0  0  0
   -0.8147   -0.0368   -1.1149 C   0  0  0  0  0  4           0  0  0
    1.9917    1.3968    0.0000 C   0  0  0  0  0  4           0  0  0
    3.0399    4.0154   -0.0310 C   0  0  0  0  0  4           0  0  0
    1.4544    2.3697   -0.8526 C   0  0  0  0  0  4           0  0  0
    3.0604    1.7461    0.8349 C   0  0  0  0  0  4           0  0  0
    1.9692    3.6680   -0.8635 C   0  0  0  0  0  4           0  0  0
    3.5759    3.0445    0.8238 C   0  0  0  0  0  4           0  0  0
   -0.1274   -1.4582   -2.9985 C   0  0  0  0  0  4           0  0  0
    4.7092    5.6196   -0.9999 C   0  0  0  0  0  4           0  0  0
    1.4501   -0.0000   -0.0000 C   0  0  0  0  0  4           0  0  0
   -0.3205    0.0302    2.5193 C   0  0  0  0  0  4           0  0  0
   -0.3326   -0.0479   -2.5190 C   0  0  0  0  0  4           0  0  0
    3.5799    5.4159   -0.0283 C   0  0  0  0  0  4           0  0  0
   -0.1569    1.4528    3.0452 C   0  0  0  0  0  4           0  0  0
    0.3480    1.5447    4.4859 C   0  0  0  0  0  4           0  0  0
    0.4977    2.9785    4.9727 C   0  0  0  0  0  4           0  0  0
  1  8  1  0     0  0
  2 17  2  0     0  0
  3 18  2  0     0  0
  4 17  1  0     0  0
  5 18  1  0     0  0
  6  9  1  0     0  0
  6 10  1  0     0  0
  6 19  1  0     0  0
  7  8  1  0     0  0
  7  9  2  0     0  0
  8 10  2  0     0  0
  9 20  1  0     0  0
 10 21  1  0     0  0
 11 13  2  0     0  0
 11 14  1  0     0  0
 11 19  1  0     0  0
 12 15  2  0     0  0
 12 16  1  0     0  0
 12 22  1  0     0  0
 13 15  1  0     0  0
 14 16  2  0     0  0
 17 21  1  0     0  0
 18 22  1  0     0  0
 20 23  1  0     0  0
 23 24  1  0     0  0
 24 25  1  0     0  0
M  END
> <standard_type>
pIC50

> <# Confs.>
25

> <canonical_smiles>
CCCCC1=NC(Cl)=C(CC(O)=O)N1CC2=CC=C(CC(O)=O)C=C2

> <standard_relation>
=

> <Publication_ID>
nan

> <predicted_activity_value>
5.0

> <actual_activity_value>
4.886056647693163

> <Compound>
21

> <standard_units>
nM

> hash
15933815746296400870

$$$$
20
XXILIB    08252103513D 0   0.00000     0.00000

 25 26  0     1  0            999 V2000
   -3.5561   -0.1021   -1.4815 Cl  0  0  0  0  0  1           0  0  0
    0.0761    2.3229   -2.3431 O   0  0  0  0  0  2           0  0  0
    3.5178   -5.3598   -2.3712 O   0  0  0  0  0  2           0  0  0
   -0.3781    1.4406   -4.3844 O   0  0  0  0  0  2           0  0  0
    4.2702   -7.2368   -1.3406 O   0  0  0  0  0  2           0  0  0
    0.0000    0.0000    0.0000 N   0  0  0  0  0  3           0  0  0
   -2.0838   -0.0300    0.7699 N   0  0  0  0  0  3           0  0  0
   -2.0979   -0.0532   -0.5999 C   0  0  0  0  0  4           0  0  0
   -0.8128    0.0000    1.1169 C   0  0  0  0  0  4           0  0  0
   -0.8147   -0.0368   -1.1149 C   0  0  0  0  0  4           0  0  0
    1.9917   -1.3968    0.0000 C   0  0  0  0  0  4           0  0  0
    3.0110   -4.0265    0.0437 C   0  0  0  0  0  4           0  0  0
    1.1251   -2.4973   -0.0000 C   0  0  0  0  0  4           0  0  0
    3.3732   -1.6248    0.0249 C   0  0  0  0  0  4           0  0  0
    1.6298   -3.7996    0.0153 C   0  0  0  0  0  4           0  0  0
    3.8783   -2.9272    0.0408 C   0  0  0  0  0  4           0  0  0
   -0.1932    1.3544   -3.0434 C   0  0  0  0  0  4           0  0  0
    3.7622   -5.9791   -1.3428 C   0  0  0  0  0  4           0  0  0
    1.4501   -0.0000    0.0000 C   0  0  0  0  0  4           0  0  0
   -0.3205    0.0302    2.5193 C   0  0  0  0  0  4           0  0  0
   -0.3326   -0.0479   -2.5190 C   0  0  0  0  0  4           0  0  0
    3.5536   -5.4261    0.0398 C   0  0  0  0  0  4           0  0  0
   -0.1569    1.4528    3.0452 C   0  0  0  0  0  4           0  0  0
   -1.4429    2.2804    3.0532 C   0  0  0  0  0  4           0  0  0
   -1.2382    3.6915    3.5840 C   0  0  0  0  0  4           0  0  0
  1  8  1  0     0  0
  2 17  2  0     0  0
  3 18  2  0     0  0
  4 17  1  0     0  0
  5 18  1  0     0  0
  6  9  1  0     0  0
  6 10  1  0     0  0
  6 19  1  0     0  0
  7  8  1  0     0  0
  7  9  2  0     0  0
  8 10  2  0     0  0
  9 20  1  0     0  0
 10 21  1  0     0  0
 11 13  2  0     0  0
 11 14  1  0     0  0
 11 19  1  0     0  0
 12 15  2  0     0  0
 12 16  1  0     0  0
 12 22  1  0     0  0
 13 15  1  0     0  0
 14 16  2  0     0  0
 17 21  1  0     0  0
 18 22  1  0     0  0
 20 23  1  0     0  0
 23 24  1  0     0  0
 24 25  1  0     0  0
M  END
> <standard_type>
pIC50

> <# Confs.>
25

> <canonical_smiles>
CCCCC1=NC(Cl)=C(CC(O)=O)N1CC2=CC=C(CC(O)=O)C=C2

> <standard_relation>
=

> <Publication_ID>
nan

> <predicted_activity_value>
5.0

> <actual_activity_value>
4.886056647693163

> <Compound>
21

> <standard_units>
nM

> hash
15933815746296400870

$$$$
20
XXILIB    08252103513D 0   0.00000     0.00000

 25 26  0     1  0            999 V2000
   -3.5561   -0.1021   -1.4815 Cl  0  0  0  0  0  1           0  0  0
    0.9270   -2.0720   -2.8869 O   0  0  0  0  0  2           0  0  0
    1.9571    5.9649    1.6699 O   0  0  0  0  0  2           0  0  0
   -1.2406   -1.9968   -3.5558 O   0  0  0  0  0  2           0  0  0
    3.3827    7.5809    0.9574 O   0  0  0  0  0  2           0  0  0
    0.0000    0.0000    0.0000 N   0  0  0  0  0  3           0  0  0
   -2.0838   -0.0300    0.7699 N   0  0  0  0  0  3           0  0  0
   -2.0979   -0.0532   -0.5999 C   0  0  0  0  0  4           0  0  0
   -0.8128    0.0000    1.1169 C   0  0  0  0  0  4           0  0  0
   -0.8147   -0.0368   -1.1149 C   0  0  0  0  0  4           0  0  0
    1.9917    1.3968    0.0000 C   0  0  0  0  0  4           0  0  0
    3.0399    4.0154   -0.0310 C   0  0  0  0  0  4           0  0  0
    1.4544    2.3697   -0.8526 C   0  0  0  0  0  4           0  0  0
    3.0604    1.7461    0.8349 C   0  0  0  0  0  4           0  0  0
    1.9692    3.6680   -0.8635 C   0  0  0  0  0  4           0  0  0
    3.5759    3.0445    0.8238 C   0  0  0  0  0  4           0  0  0
   -0.1274   -1.4582   -2.9985 C   0  0  0  0  0  4           0  0  0
    2.8784    6.3217    0.9456 C   0  0  0  0  0  4           0  0  0
    1.4501   -0.0000   -0.0000 C   0  0  0  0  0  4           0  0  0
   -0.3205    0.0302    2.5193 C   0  0  0  0  0  4           0  0  0
   -0.3326   -0.0479   -2.5190 C   0  0  0  0  0  4           0  0  0
    3.5799    5.4159   -0.0283 C   0  0  0  0  0  4           0  0  0
   -0.1005   -1.3688    3.0862 C   0  0  0  0  0  4           0  0  0
    0.4068   -1.3985    4.5287 C   0  0  0  0  0  4           0  0  0
    0.6134   -2.8104    5.0569 C   0  0  0  0  0  4           0  0  0
  1  8  1  0     0  0
  2 17  2  0     0  0
  3 18  2  0     0  0
  4 17  1  0     0  0
  5 18  1  0     0  0
  6  9  1  0     0  0
  6 10  1  0     0  0
  6 19  1  0     0  0
  7  8  1  0     0  0
  7  9  2  0     0  0
  8 10  2  0     0  0
  9 20  1  0     0  0
 10 21  1  0     0  0
 11 13  2  0     0  0
 11 14  1  0     0  0
 11 19  1  0     0  0
 12 15  2  0     0  0
 12 16  1  0     0  0
 12 22  1  0     0  0
 13 15  1  0     0  0
 14 16  2  0     0  0
 17 21  1  0     0  0
 18 22  1  0     0  0
 20 23  1  0     0  0
 23 24  1  0     0  0
 24 25  1  0     0  0
M  END
> <standard_type>
pIC50

> <# Confs.>
25

> <canonical_smiles>
CCCCC1=NC(Cl)=C(CC(O)=O)N1CC2=CC=C(CC(O)=O)C=C2

> <standard_relation>
=

> <Publication_ID>
nan

> <predicted_activity_value>
5.0

> <actual_activity_value>
4.886056647693163

> <Compound>
21

> <standard_units>
nM

> hash
15933815746296400870

$$$$
20
XXILIB    08252103513D 0   0.00000     0.00000

 25 26  0     1  0            999 V2000
   -3.5561   -0.1021   -1.4815 Cl  0  0  0  0  0  1           0  0  0
    0.9270   -2.0720   -2.8869 O   0  0  0  0  0  2           0  0  0
    1.9571    5.9649    1.6699 O   0  0  0  0  0  2           0  0  0
   -1.2406   -1.9968   -3.5558 O   0  0  0  0  0  2           0  0  0
    3.3827    7.5809    0.9574 O   0  0  0  0  0  2           0  0  0
    0.0000    0.0000    0.0000 N   0  0  0  0  0  3           0  0  0
   -2.0838   -0.0300    0.7699 N   0  0  0  0  0  3           0  0  0
   -2.0979   -0.0532   -0.5999 C   0  0  0  0  0  4           0  0  0
   -0.8128    0.0000    1.1169 C   0  0  0  0  0  4           0  0  0
   -0.8147   -0.0368   -1.1149 C   0  0  0  0  0  4           0  0  0
    1.9917    1.3968    0.0000 C   0  0  0  0  0  4           0  0  0
    3.0399    4.0154   -0.0310 C   0  0  0  0  0  4           0  0  0
    1.4544    2.3697   -0.8526 C   0  0  0  0  0  4           0  0  0
    3.0604    1.7461    0.8349 C   0  0  0  0  0  4           0  0  0
    1.9692    3.6680   -0.8635 C   0  0  0  0  0  4           0  0  0
    3.5759    3.0445    0.8238 C   0  0  0  0  0  4           0  0  0
   -0.1274   -1.4582   -2.9985 C   0  0  0  0  0  4           0  0  0
    2.8784    6.3217    0.9456 C   0  0  0  0  0  4           0  0  0
    1.4501   -0.0000   -0.0000 C   0  0  0  0  0  4           0  0  0
   -0.3205    0.0302    2.5193 C   0  0  0  0  0  4           0  0  0
   -0.3326   -0.0479   -2.5190 C   0  0  0  0  0  4           0  0  0
    3.5799    5.4159   -0.0283 C   0  0  0  0  0  4           0  0  0
   -0.1569    1.4528    3.0452 C   0  0  0  0  0  4           0  0  0
    0.3480    1.5447    4.4859 C   0  0  0  0  0  4           0  0  0
    0.4977    2.9785    4.9727 C   0  0  0  0  0  4           0  0  0
  1  8  1  0     0  0
  2 17  2  0     0  0
  3 18  2  0     0  0
  4 17  1  0     0  0
  5 18  1  0     0  0
  6  9  1  0     0  0
  6 10  1  0     0  0
  6 19  1  0     0  0
  7  8  1  0     0  0
  7  9  2  0     0  0
  8 10  2  0     0  0
  9 20  1  0     0  0
 10 21  1  0     0  0
 11 13  2  0     0  0
 11 14  1  0     0  0
 11 19  1  0     0  0
 12 15  2  0     0  0
 12 16  1  0     0  0
 12 22  1  0     0  0
 13 15  1  0     0  0
 14 16  2  0     0  0
 17 21  1  0     0  0
 18 22  1  0     0  0
 20 23  1  0     0  0
 23 24  1  0     0  0
 24 25  1  0     0  0
M  END
> <standard_type>
pIC50

> <# Confs.>
25

> <canonical_smiles>
CCCCC1=NC(Cl)=C(CC(O)=O)N1CC2=CC=C(CC(O)=O)C=C2

> <standard_relation>
=

> <Publication_ID>
nan

> <predicted_activity_value>
5.0

> <actual_activity_value>
4.886056647693163

> <Compound>
21

> <standard_units>
nM

> hash
15933815746296400870

$$$$
20
XXILIB    08252103513D 0   0.00000     0.00000

 25 26  0     1  0            999 V2000
   -3.5561   -0.1021   -1.4815 Cl  0  0  0  0  0  1           0  0  0
    0.0761    2.3229   -2.3431 O   0  0  0  0  0  2           0  0  0
    3.5178   -5.3598   -2.3712 O   0  0  0  0  0  2           0  0  0
   -0.3781    1.4406   -4.3844 O   0  0  0  0  0  2           0  0  0
    4.2702   -7.2368   -1.3406 O   0  0  0  0  0  2           0  0  0
    0.0000    0.0000    0.0000 N   0  0  0  0  0  3           0  0  0
   -2.0838   -0.0300    0.7699 N   0  0  0  0  0  3           0  0  0
   -2.0979   -0.0532   -0.5999 C   0  0  0  0  0  4           0  0  0
   -0.8128    0.0000    1.1169 C   0  0  0  0  0  4           0  0  0
   -0.8147   -0.0368   -1.1149 C   0  0  0  0  0  4           0  0  0
    1.9917   -1.3968    0.0000 C   0  0  0  0  0  4           0  0  0
    3.0110   -4.0265    0.0437 C   0  0  0  0  0  4           0  0  0
    1.1251   -2.4973   -0.0000 C   0  0  0  0  0  4           0  0  0
    3.3732   -1.6248    0.0249 C   0  0  0  0  0  4           0  0  0
    1.6298   -3.7996    0.0153 C   0  0  0  0  0  4           0  0  0
    3.8783   -2.9272    0.0408 C   0  0  0  0  0  4           0  0  0
   -0.1932    1.3544   -3.0434 C   0  0  0  0  0  4           0  0  0
    3.7622   -5.9791   -1.3428 C   0  0  0  0  0  4           0  0  0
    1.4501   -0.0000    0.0000 C   0  0  0  0  0  4           0  0  0
   -0.3205    0.0302    2.5193 C   0  0  0  0  0  4           0  0  0
   -0.3326   -0.0479   -2.5190 C   0  0  0  0  0  4           0  0  0
    3.5536   -5.4261    0.0398 C   0  0  0  0  0  4           0  0  0
   -1.4600    0.0222    3.5335 C   0  0  0  0  0  4           0  0  0
   -1.0113    0.0524    4.9952 C   0  0  0  0  0  4           0  0  0
   -2.1758    0.0434    5.9745 C   0  0  0  0  0  4           0  0  0
  1  8  1  0     0  0
  2 17  2  0     0  0
  3 18  2  0     0  0
  4 17  1  0     0  0
  5 18  1  0     0  0
  6  9  1  0     0  0
  6 10  1  0     0  0
  6 19  1  0     0  0
  7  8  1  0     0  0
  7  9  2  0     0  0
  8 10  2  0     0  0
  9 20  1  0     0  0
 10 21  1  0     0  0
 11 13  2  0     0  0
 11 14  1  0     0  0
 11 19  1  0     0  0
 12 15  2  0     0  0
 12 16  1  0     0  0
 12 22  1  0     0  0
 13 15  1  0     0  0
 14 16  2  0     0  0
 17 21  1  0     0  0
 18 22  1  0     0  0
 20 23  1  0     0  0
 23 24  1  0     0  0
 24 25  1  0     0  0
M  END
> <standard_type>
pIC50

> <# Confs.>
25

> <canonical_smiles>
CCCCC1=NC(Cl)=C(CC(O)=O)N1CC2=CC=C(CC(O)=O)C=C2

> <standard_relation>
=

> <Publication_ID>
nan

> <predicted_activity_value>
5.0

> <actual_activity_value>
4.886056647693163

> <Compound>
21

> <standard_units>
nM

> hash
15933815746296400870

$$$$
20
XXILIB    08252103513D 0   0.00000     0.00000

 25 26  0     1  0            999 V2000
   -3.5561   -0.1021   -1.4815 Cl  0  0  0  0  0  1           0  0  0
    0.0761    2.3229   -2.3431 O   0  0  0  0  0  2           0  0  0
    3.5178   -5.3598   -2.3712 O   0  0  0  0  0  2           0  0  0
   -0.3781    1.4406   -4.3844 O   0  0  0  0  0  2           0  0  0
    4.2702   -7.2368   -1.3406 O   0  0  0  0  0  2           0  0  0
    0.0000    0.0000    0.0000 N   0  0  0  0  0  3           0  0  0
   -2.0838   -0.0300    0.7699 N   0  0  0  0  0  3           0  0  0
   -2.0979   -0.0532   -0.5999 C   0  0  0  0  0  4           0  0  0
   -0.8128    0.0000    1.1169 C   0  0  0  0  0  4           0  0  0
   -0.8147   -0.0368   -1.1149 C   0  0  0  0  0  4           0  0  0
    1.9917   -1.3968    0.0000 C   0  0  0  0  0  4           0  0  0
    3.0110   -4.0265    0.0437 C   0  0  0  0  0  4           0  0  0
    1.1251   -2.4973   -0.0000 C   0  0  0  0  0  4           0  0  0
    3.3732   -1.6248    0.0249 C   0  0  0  0  0  4           0  0  0
    1.6298   -3.7996    0.0153 C   0  0  0  0  0  4           0  0  0
    3.8783   -2.9272    0.0408 C   0  0  0  0  0  4           0  0  0
   -0.1932    1.3544   -3.0434 C   0  0  0  0  0  4           0  0  0
    3.7622   -5.9791   -1.3428 C   0  0  0  0  0  4           0  0  0
    1.4501   -0.0000    0.0000 C   0  0  0  0  0  4           0  0  0
   -0.3205    0.0302    2.5193 C   0  0  0  0  0  4           0  0  0
   -0.3326   -0.0479   -2.5190 C   0  0  0  0  0  4           0  0  0
    3.5536   -5.4261    0.0398 C   0  0  0  0  0  4           0  0  0
   -1.0501   -0.9696    3.4110 C   0  0  0  0  0  4           0  0  0
   -0.9196   -2.4284    2.9710 C   0  0  0  0  0  4           0  0  0
   -1.6604   -3.3932    3.8850 C   0  0  0  0  0  4           0  0  0
  1  8  1  0     0  0
  2 17  2  0     0  0
  3 18  2  0     0  0
  4 17  1  0     0  0
  5 18  1  0     0  0
  6  9  1  0     0  0
  6 10  1  0     0  0
  6 19  1  0     0  0
  7  8  1  0     0  0
  7  9  2  0     0  0
  8 10  2  0     0  0
  9 20  1  0     0  0
 10 21  1  0     0  0
 11 13  2  0     0  0
 11 14  1  0     0  0
 11 19  1  0     0  0
 12 15  2  0     0  0
 12 16  1  0     0  0
 12 22  1  0     0  0
 13 15  1  0     0  0
 14 16  2  0     0  0
 17 21  1  0     0  0
 18 22  1  0     0  0
 20 23  1  0     0  0
 23 24  1  0     0  0
 24 25  1  0     0  0
M  END
> <standard_type>
pIC50

> <# Confs.>
25

> <canonical_smiles>
CCCCC1=NC(Cl)=C(CC(O)=O)N1CC2=CC=C(CC(O)=O)C=C2

> <standard_relation>
=

> <Publication_ID>
nan

> <predicted_activity_value>
5.0

> <actual_activity_value>
4.886056647693163

> <Compound>
21

> <standard_units>
nM

> hash
15933815746296400870

$$$$
20
XXILIB    08252103513D 0   0.00000     0.00000

 25 26  0     1  0            999 V2000
   -3.5561   -0.1021   -1.4815 Cl  0  0  0  0  0  1           0  0  0
    0.5439    2.1992   -2.5496 O   0  0  0  0  0  2           0  0  0
    1.9571   -5.9649   -1.6699 O   0  0  0  0  0  2           0  0  0
   -0.9570    1.5898   -4.1393 O   0  0  0  0  0  2           0  0  0
    3.3827   -7.5809   -0.9574 O   0  0  0  0  0  2           0  0  0
    0.0000    0.0000    0.0000 N   0  0  0  0  0  3           0  0  0
   -2.0838   -0.0300    0.7699 N   0  0  0  0  0  3           0  0  0
   -2.0979   -0.0532   -0.5999 C   0  0  0  0  0  4           0  0  0
   -0.8128    0.0000    1.1169 C   0  0  0  0  0  4           0  0  0
   -0.8147   -0.0368   -1.1149 C   0  0  0  0  0  4           0  0  0
    1.9917   -1.3968   -0.0000 C   0  0  0  0  0  4           0  0  0
    3.0399   -4.0154    0.0310 C   0  0  0  0  0  4           0  0  0
    1.4544   -2.3697    0.8526 C   0  0  0  0  0  4           0  0  0
    3.0604   -1.7461   -0.8349 C   0  0  0  0  0  4           0  0  0
    1.9692   -3.6680    0.8635 C   0  0  0  0  0  4           0  0  0
    3.5759   -3.0445   -0.8238 C   0  0  0  0  0  4           0  0  0
   -0.1932    1.3544   -3.0434 C   0  0  0  0  0  4           0  0  0
    2.8784   -6.3217   -0.9456 C   0  0  0  0  0  4           0  0  0
    1.4501    0.0000    0.0000 C   0  0  0  0  0  4           0  0  0
   -0.3205    0.0302    2.5193 C   0  0  0  0  0  4           0  0  0
   -0.3326   -0.0479   -2.5190 C   0  0  0  0  0  4           0  0  0
    3.5799   -5.4159    0.0283 C   0  0  0  0  0  4           0  0  0
   -0.1569    1.4528    3.0452 C   0  0  0  0  0  4           0  0  0
    0.3480    1.5447    4.4859 C   0  0  0  0  0  4           0  0  0
    0.4977    2.9785    4.9727 C   0  0  0  0  0  4           0  0  0
  1  8  1  0     0  0
  2 17  2  0     0  0
  3 18  2  0     0  0
  4 17  1  0     0  0
  5 18  1  0     0  0
  6  9  1  0     0  0
  6 10  1  0     0  0
  6 19  1  0     0  0
  7  8  1  0     0  0
  7  9  2  0     0  0
  8 10  2  0     0  0
  9 20  1  0     0  0
 10 21  1  0     0  0
 11 13  2  0     0  0
 11 14  1  0     0  0
 11 19  1  0     0  0
 12 15  2  0     0  0
 12 16  1  0     0  0
 12 22  1  0     0  0
 13 15  1  0     0  0
 14 16  2  0     0  0
 17 21  1  0     0  0
 18 22  1  0     0  0
 20 23  1  0     0  0
 23 24  1  0     0  0
 24 25  1  0     0  0
M  END
> <standard_type>
pIC50

> <# Confs.>
25

> <canonical_smiles>
CCCCC1=NC(Cl)=C(CC(O)=O)N1CC2=CC=C(CC(O)=O)C=C2

> <standard_relation>
=

> <Publication_ID>
nan

> <predicted_activity_value>
5.0

> <actual_activity_value>
4.886056647693163

> <Compound>
21

> <standard_units>
nM

> hash
15933815746296400870

$$$$
20
XXILIB    08252103513D 0   0.00000     0.00000

 25 26  0     1  0            999 V2000
   -3.5561   -0.1021   -1.4815 Cl  0  0  0  0  0  1           0  0  0
    0.9270   -2.0720   -2.8869 O   0  0  0  0  0  2           0  0  0
    1.9697    5.9600   -1.6835 O   0  0  0  0  0  2           0  0  0
   -1.2406   -1.9968   -3.5558 O   0  0  0  0  0  2           0  0  0
    3.3649    7.5877   -0.9384 O   0  0  0  0  0  2           0  0  0
    0.0000    0.0000    0.0000 N   0  0  0  0  0  3           0  0  0
   -2.0838   -0.0300    0.7699 N   0  0  0  0  0  3           0  0  0
   -2.0979   -0.0532   -0.5999 C   0  0  0  0  0  4           0  0  0
   -0.8128    0.0000    1.1169 C   0  0  0  0  0  4           0  0  0
   -0.8147   -0.0368   -1.1149 C   0  0  0  0  0  4           0  0  0
    1.9917    1.3968    0.0000 C   0  0  0  0  0  4           0  0  0
    3.0400    4.0153    0.0308 C   0  0  0  0  0  4           0  0  0
    3.0443    1.7533   -0.8526 C   0  0  0  0  0  4           0  0  0
    1.4705    2.3625    0.8702 C   0  0  0  0  0  4           0  0  0
    3.5594    3.0516   -0.8419 C   0  0  0  0  0  4           0  0  0
    1.9859    3.6609    0.8815 C   0  0  0  0  0  4           0  0  0
   -0.1274   -1.4582   -2.9985 C   0  0  0  0  0  4           0  0  0
    2.8857    6.3189   -0.9535 C   0  0  0  0  0  4           0  0  0
    1.4501   -0.0000    0.0000 C   0  0  0  0  0  4           0  0  0
   -0.3205    0.0302    2.5193 C   0  0  0  0  0  4           0  0  0
   -0.3326   -0.0479   -2.5190 C   0  0  0  0  0  4           0  0  0
    3.5801    5.4159    0.0280 C   0  0  0  0  0  4           0  0  0
   -0.1005   -1.3688    3.0862 C   0  0  0  0  0  4           0  0  0
    0.4068   -1.3985    4.5287 C   0  0  0  0  0  4           0  0  0
    0.6134   -2.8104    5.0569 C   0  0  0  0  0  4           0  0  0
  1  8  1  0     0  0
  2 17  2  0     0  0
  3 18  2  0     0  0
  4 17  1  0     0  0
  5 18  1  0     0  0
  6  9  1  0     0  0
  6 10  1  0     0  0
  6 19  1  0     0  0
  7  8  1  0     0  0
  7  9  2  0     0  0
  8 10  2  0     0  0
  9 20  1  0     0  0
 10 21  1  0     0  0
 11 13  2  0     0  0
 11 14  1  0     0  0
 11 19  1  0     0  0
 12 15  2  0     0  0
 12 16  1  0     0  0
 12 22  1  0     0  0
 13 15  1  0     0  0
 14 16  2  0     0  0
 17 21  1  0     0  0
 18 22  1  0     0  0
 20 23  1  0     0  0
 23 24  1  0     0  0
 24 25  1  0     0  0
M  END
> <standard_type>
pIC50

> <# Confs.>
25

> <canonical_smiles>
CCCCC1=NC(Cl)=C(CC(O)=O)N1CC2=CC=C(CC(O)=O)C=C2

> <standard_relation>
=

> <Publication_ID>
nan

> <predicted_activity_value>
5.0

> <actual_activity_value>
4.886056647693163

> <Compound>
21

> <standard_units>
nM

> hash
15933815746296400870

$$$$
20
XXILIB    08252103513D 0   0.00000     0.00000

 25 26  0     1  0            999 V2000
   -3.5561   -0.1021   -1.4815 Cl  0  0  0  0  0  1           0  0  0
    0.5439    2.1992   -2.5496 O   0  0  0  0  0  2           0  0  0
    5.1534   -4.7391    1.7267 O   0  0  0  0  0  2           0  0  0
   -0.9570    1.5898   -4.1393 O   0  0  0  0  0  2           0  0  0
    5.1808   -6.8914    1.0069 O   0  0  0  0  0  2           0  0  0
    0.0000    0.0000    0.0000 N   0  0  0  0  0  3           0  0  0
   -2.0838   -0.0300    0.7699 N   0  0  0  0  0  3           0  0  0
   -2.0979   -0.0532   -0.5999 C   0  0  0  0  0  4           0  0  0
   -0.8128    0.0000    1.1169 C   0  0  0  0  0  4           0  0  0
   -0.8147   -0.0368   -1.1149 C   0  0  0  0  0  4           0  0  0
    1.9917   -1.3968   -0.0000 C   0  0  0  0  0  4           0  0  0
    3.0399   -4.0154    0.0310 C   0  0  0  0  0  4           0  0  0
    1.4544   -2.3697    0.8526 C   0  0  0  0  0  4           0  0  0
    3.0604   -1.7461   -0.8349 C   0  0  0  0  0  4           0  0  0
    1.9692   -3.6680    0.8635 C   0  0  0  0  0  4           0  0  0
    3.5759   -3.0445   -0.8238 C   0  0  0  0  0  4           0  0  0
   -0.1932    1.3544   -3.0434 C   0  0  0  0  0  4           0  0  0
    4.7092   -5.6196    0.9999 C   0  0  0  0  0  4           0  0  0
    1.4501    0.0000    0.0000 C   0  0  0  0  0  4           0  0  0
   -0.3205    0.0302    2.5193 C   0  0  0  0  0  4           0  0  0
   -0.3326   -0.0479   -2.5190 C   0  0  0  0  0  4           0  0  0
    3.5799   -5.4159    0.0283 C   0  0  0  0  0  4           0  0  0
   -0.1569    1.4528    3.0452 C   0  0  0  0  0  4           0  0  0
    0.3480    1.5447    4.4859 C   0  0  0  0  0  4           0  0  0
    0.4977    2.9785    4.9727 C   0  0  0  0  0  4           0  0  0
  1  8  1  0     0  0
  2 17  2  0     0  0
  3 18  2  0     0  0
  4 17  1  0     0  0
  5 18  1  0     0  0
  6  9  1  0     0  0
  6 10  1  0     0  0
  6 19  1  0     0  0
  7  8  1  0     0  0
  7  9  2  0     0  0
  8 10  2  0     0  0
  9 20  1  0     0  0
 10 21  1  0     0  0
 11 13  2  0     0  0
 11 14  1  0     0  0
 11 19  1  0     0  0
 12 15  2  0     0  0
 12 16  1  0     0  0
 12 22  1  0     0  0
 13 15  1  0     0  0
 14 16  2  0     0  0
 17 21  1  0     0  0
 18 22  1  0     0  0
 20 23  1  0     0  0
 23 24  1  0     0  0
 24 25  1  0     0  0
M  END
> <standard_type>
pIC50

> <# Confs.>
25

> <canonical_smiles>
CCCCC1=NC(Cl)=C(CC(O)=O)N1CC2=CC=C(CC(O)=O)C=C2

> <standard_relation>
=

> <Publication_ID>
nan

> <predicted_activity_value>
5.0

> <actual_activity_value>
4.886056647693163

> <Compound>
21

> <standard_units>
nM

> hash
15933815746296400870

$$$$
20
XXILIB    08252103513D 0   0.00000     0.00000

 25 26  0     1  0            999 V2000
   -3.5561   -0.1021   -1.4815 Cl  0  0  0  0  0  1           0  0  0
    0.9270   -2.0720   -2.8869 O   0  0  0  0  0  2           0  0  0
    5.1412    4.7438    1.7398 O   0  0  0  0  0  2           0  0  0
   -1.2406   -1.9968   -3.5558 O   0  0  0  0  0  2           0  0  0
    5.1990    6.8843    0.9873 O   0  0  0  0  0  2           0  0  0
    0.0000    0.0000    0.0000 N   0  0  0  0  0  3           0  0  0
   -2.0838   -0.0300    0.7699 N   0  0  0  0  0  3           0  0  0
   -2.0979   -0.0532   -0.5999 C   0  0  0  0  0  4           0  0  0
   -0.8128    0.0000    1.1169 C   0  0  0  0  0  4           0  0  0
   -0.8147   -0.0368   -1.1149 C   0  0  0  0  0  4           0  0  0
    1.9917    1.3968    0.0000 C   0  0  0  0  0  4           0  0  0
    3.0400    4.0153    0.0308 C   0  0  0  0  0  4           0  0  0
    3.0443    1.7533   -0.8526 C   0  0  0  0  0  4           0  0  0
    1.4705    2.3625    0.8702 C   0  0  0  0  0  4           0  0  0
    3.5594    3.0516   -0.8419 C   0  0  0  0  0  4           0  0  0
    1.9859    3.6609    0.8815 C   0  0  0  0  0  4           0  0  0
   -0.1274   -1.4582   -2.9985 C   0  0  0  0  0  4           0  0  0
    4.7023    5.6223    1.0074 C   0  0  0  0  0  4           0  0  0
    1.4501   -0.0000    0.0000 C   0  0  0  0  0  4           0  0  0
   -0.3205    0.0302    2.5193 C   0  0  0  0  0  4           0  0  0
   -0.3326   -0.0479   -2.5190 C   0  0  0  0  0  4           0  0  0
    3.5801    5.4159    0.0280 C   0  0  0  0  0  4           0  0  0
   -0.1005   -1.3688    3.0862 C   0  0  0  0  0  4           0  0  0
    0.4068   -1.3985    4.5287 C   0  0  0  0  0  4           0  0  0
    0.6134   -2.8104    5.0569 C   0  0  0  0  0  4           0  0  0
  1  8  1  0     0  0
  2 17  2  0     0  0
  3 18  2  0     0  0
  4 17  1  0     0  0
  5 18  1  0     0  0
  6  9  1  0     0  0
  6 10  1  0     0  0
  6 19  1  0     0  0
  7  8  1  0     0  0
  7  9  2  0     0  0
  8 10  2  0     0  0
  9 20  1  0     0  0
 10 21  1  0     0  0
 11 13  2  0     0  0
 11 14  1  0     0  0
 11 19  1  0     0  0
 12 15  2  0     0  0
 12 16  1  0     0  0
 12 22  1  0     0  0
 13 15  1  0     0  0
 14 16  2  0     0  0
 17 21  1  0     0  0
 18 22  1  0     0  0
 20 23  1  0     0  0
 23 24  1  0     0  0
 24 25  1  0     0  0
M  END
> <standard_type>
pIC50

> <# Confs.>
25

> <canonical_smiles>
CCCCC1=NC(Cl)=C(CC(O)=O)N1CC2=CC=C(CC(O)=O)C=C2

> <standard_relation>
=

> <Publication_ID>
nan

> <predicted_activity_value>
5.0

> <actual_activity_value>
4.886056647693163

> <Compound>
21

> <standard_units>
nM

> hash
15933815746296400870

$$$$
20
XXILIB    08252103513D 0   0.00000     0.00000

 25 26  0     1  0            999 V2000
   -3.5561   -0.1021   -1.4815 Cl  0  0  0  0  0  1           0  0  0
    0.5439    2.1992   -2.5496 O   0  0  0  0  0  2           0  0  0
    3.5178   -5.3598   -2.3712 O   0  0  0  0  0  2           0  0  0
   -0.9570    1.5898   -4.1393 O   0  0  0  0  0  2           0  0  0
    4.2702   -7.2368   -1.3406 O   0  0  0  0  0  2           0  0  0
    0.0000    0.0000    0.0000 N   0  0  0  0  0  3           0  0  0
   -2.0838   -0.0300    0.7699 N   0  0  0  0  0  3           0  0  0
   -2.0979   -0.0532   -0.5999 C   0  0  0  0  0  4           0  0  0
   -0.8128    0.0000    1.1169 C   0  0  0  0  0  4           0  0  0
   -0.8147   -0.0368   -1.1149 C   0  0  0  0  0  4           0  0  0
    1.9917   -1.3968    0.0000 C   0  0  0  0  0  4           0  0  0
    3.0110   -4.0265    0.0437 C   0  0  0  0  0  4           0  0  0
    1.1251   -2.4973   -0.0000 C   0  0  0  0  0  4           0  0  0
    3.3732   -1.6248    0.0249 C   0  0  0  0  0  4           0  0  0
    1.6298   -3.7996    0.0153 C   0  0  0  0  0  4           0  0  0
    3.8783   -2.9272    0.0408 C   0  0  0  0  0  4           0  0  0
   -0.1932    1.3544   -3.0434 C   0  0  0  0  0  4           0  0  0
    3.7622   -5.9791   -1.3428 C   0  0  0  0  0  4           0  0  0
    1.4501   -0.0000    0.0000 C   0  0  0  0  0  4           0  0  0
   -0.3205    0.0302    2.5193 C   0  0  0  0  0  4           0  0  0
   -0.3326   -0.0479   -2.5190 C   0  0  0  0  0  4           0  0  0
    3.5536   -5.4261    0.0398 C   0  0  0  0  0  4           0  0  0
   -0.1005   -1.3688    3.0862 C   0  0  0  0  0  4           0  0  0
    0.4068   -1.3985    4.5287 C   0  0  0  0  0  4           0  0  0
    0.6134   -2.8104    5.0569 C   0  0  0  0  0  4           0  0  0
  1  8  1  0     0  0
  2 17  2  0     0  0
  3 18  2  0     0  0
  4 17  1  0     0  0
  5 18  1  0     0  0
  6  9  1  0     0  0
  6 10  1  0     0  0
  6 19  1  0     0  0
  7  8  1  0     0  0
  7  9  2  0     0  0
  8 10  2  0     0  0
  9 20  1  0     0  0
 10 21  1  0     0  0
 11 13  2  0     0  0
 11 14  1  0     0  0
 11 19  1  0     0  0
 12 15  2  0     0  0
 12 16  1  0     0  0
 12 22  1  0     0  0
 13 15  1  0     0  0
 14 16  2  0     0  0
 17 21  1  0     0  0
 18 22  1  0     0  0
 20 23  1  0     0  0
 23 24  1  0     0  0
 24 25  1  0     0  0
M  END
> <standard_type>
pIC50

> <# Confs.>
25

> <canonical_smiles>
CCCCC1=NC(Cl)=C(CC(O)=O)N1CC2=CC=C(CC(O)=O)C=C2

> <standard_relation>
=

> <Publication_ID>
nan

> <predicted_activity_value>
5.0

> <actual_activity_value>
4.886056647693163

> <Compound>
21

> <standard_units>
nM

> hash
15933815746296400870

$$$$
20
XXILIB    08252103513D 0   0.00000     0.00000

 25 26  0     1  0            999 V2000
   -3.5561   -0.1021   -1.4815 Cl  0  0  0  0  0  1           0  0  0
    0.1863   -2.3903   -2.2680 O   0  0  0  0  0  2           0  0  0
    3.5178    5.3598    2.3712 O   0  0  0  0  0  2           0  0  0
   -0.3438   -1.6032   -4.3297 O   0  0  0  0  0  2           0  0  0
    4.2702    7.2368    1.3406 O   0  0  0  0  0  2           0  0  0
    0.0000    0.0000    0.0000 N   0  0  0  0  0  3           0  0  0
   -2.0838   -0.0300    0.7699 N   0  0  0  0  0  3           0  0  0
   -2.0979   -0.0532   -0.5999 C   0  0  0  0  0  4           0  0  0
   -0.8128    0.0000    1.1169 C   0  0  0  0  0  4           0  0  0
   -0.8147   -0.0368   -1.1149 C   0  0  0  0  0  4           0  0  0
    1.9917    1.3968    0.0000 C   0  0  0  0  0  4           0  0  0
    3.0110    4.0265   -0.0437 C   0  0  0  0  0  4           0  0  0
    1.1251    2.4973    0.0000 C   0  0  0  0  0  4           0  0  0
    3.3732    1.6248   -0.0249 C   0  0  0  0  0  4           0  0  0
    1.6298    3.7996   -0.0153 C   0  0  0  0  0  4           0  0  0
    3.8783    2.9272   -0.0408 C   0  0  0  0  0  4           0  0  0
   -0.1274   -1.4582   -2.9985 C   0  0  0  0  0  4           0  0  0
    3.7622    5.9791    1.3428 C   0  0  0  0  0  4           0  0  0
    1.4501    0.0000   -0.0000 C   0  0  0  0  0  4           0  0  0
   -0.3205    0.0302    2.5193 C   0  0  0  0  0  4           0  0  0
   -0.3326   -0.0479   -2.5190 C   0  0  0  0  0  4           0  0  0
    3.5536    5.4261   -0.0398 C   0  0  0  0  0  4           0  0  0
   -1.0900    1.0256    3.3820 C   0  0  0  0  0  4           0  0  0
   -1.0176    2.4751    2.8997 C   0  0  0  0  0  4           0  0  0
   -1.7969    3.4357    3.7857 C   0  0  0  0  0  4           0  0  0
  1  8  1  0     0  0
  2 17  2  0     0  0
  3 18  2  0     0  0
  4 17  1  0     0  0
  5 18  1  0     0  0
  6  9  1  0     0  0
  6 10  1  0     0  0
  6 19  1  0     0  0
  7  8  1  0     0  0
  7  9  2  0     0  0
  8 10  2  0     0  0
  9 20  1  0     0  0
 10 21  1  0     0  0
 11 13  2  0     0  0
 11 14  1  0     0  0
 11 19  1  0     0  0
 12 15  2  0     0  0
 12 16  1  0     0  0
 12 22  1  0     0  0
 13 15  1  0     0  0
 14 16  2  0     0  0
 17 21  1  0     0  0
 18 22  1  0     0  0
 20 23  1  0     0  0
 23 24  1  0     0  0
 24 25  1  0     0  0
M  END
> <standard_type>
pIC50

> <# Confs.>
25

> <canonical_smiles>
CCCCC1=NC(Cl)=C(CC(O)=O)N1CC2=CC=C(CC(O)=O)C=C2

> <standard_relation>
=

> <Publication_ID>
nan

> <predicted_activity_value>
5.0

> <actual_activity_value>
4.886056647693163

> <Compound>
21

> <standard_units>
nM

> hash
15933815746296400870

$$$$
20
XXILIB    08252103513D 0   0.00000     0.00000

 25 26  0     1  0            999 V2000
   -3.5561   -0.1021   -1.4815 Cl  0  0  0  0  0  1           0  0  0
    0.1863   -2.3903   -2.2680 O   0  0  0  0  0  2           0  0  0
    3.5178    5.3598    2.3712 O   0  0  0  0  0  2           0  0  0
   -0.3438   -1.6032   -4.3297 O   0  0  0  0  0  2           0  0  0
    4.2702    7.2368    1.3406 O   0  0  0  0  0  2           0  0  0
    0.0000    0.0000    0.0000 N   0  0  0  0  0  3           0  0  0
   -2.0838   -0.0300    0.7699 N   0  0  0  0  0  3           0  0  0
   -2.0979   -0.0532   -0.5999 C   0  0  0  0  0  4           0  0  0
   -0.8128    0.0000    1.1169 C   0  0  0  0  0  4           0  0  0
   -0.8147   -0.0368   -1.1149 C   0  0  0  0  0  4           0  0  0
    1.9917    1.3968    0.0000 C   0  0  0  0  0  4           0  0  0
    3.0110    4.0265   -0.0437 C   0  0  0  0  0  4           0  0  0
    1.1251    2.4973    0.0000 C   0  0  0  0  0  4           0  0  0
    3.3732    1.6248   -0.0249 C   0  0  0  0  0  4           0  0  0
    1.6298    3.7996   -0.0153 C   0  0  0  0  0  4           0  0  0
    3.8783    2.9272   -0.0408 C   0  0  0  0  0  4           0  0  0
   -0.1274   -1.4582   -2.9985 C   0  0  0  0  0  4           0  0  0
    3.7622    5.9791    1.3428 C   0  0  0  0  0  4           0  0  0
    1.4501    0.0000   -0.0000 C   0  0  0  0  0  4           0  0  0
   -0.3205    0.0302    2.5193 C   0  0  0  0  0  4           0  0  0
   -0.3326   -0.0479   -2.5190 C   0  0  0  0  0  4           0  0  0
    3.5536    5.4261   -0.0398 C   0  0  0  0  0  4           0  0  0
   -1.4600    0.0222    3.5335 C   0  0  0  0  0  4           0  0  0
   -1.0113    0.0524    4.9952 C   0  0  0  0  0  4           0  0  0
   -2.1758    0.0434    5.9745 C   0  0  0  0  0  4           0  0  0
  1  8  1  0     0  0
  2 17  2  0     0  0
  3 18  2  0     0  0
  4 17  1  0     0  0
  5 18  1  0     0  0
  6  9  1  0     0  0
  6 10  1  0     0  0
  6 19  1  0     0  0
  7  8  1  0     0  0
  7  9  2  0     0  0
  8 10  2  0     0  0
  9 20  1  0     0  0
 10 21  1  0     0  0
 11 13  2  0     0  0
 11 14  1  0     0  0
 11 19  1  0     0  0
 12 15  2  0     0  0
 12 16  1  0     0  0
 12 22  1  0     0  0
 13 15  1  0     0  0
 14 16  2  0     0  0
 17 21  1  0     0  0
 18 22  1  0     0  0
 20 23  1  0     0  0
 23 24  1  0     0  0
 24 25  1  0     0  0
M  END
> <standard_type>
pIC50

> <# Confs.>
25

> <canonical_smiles>
CCCCC1=NC(Cl)=C(CC(O)=O)N1CC2=CC=C(CC(O)=O)C=C2

> <standard_relation>
=

> <Publication_ID>
nan

> <predicted_activity_value>
5.0

> <actual_activity_value>
4.886056647693163

> <Compound>
21

> <standard_units>
nM

> hash
15933815746296400870

$$$$
20
XXILIB    08252103513D 0   0.00000     0.00000

 25 26  0     1  0            999 V2000
   -3.5561   -0.1021   -1.4815 Cl  0  0  0  0  0  1           0  0  0
    0.6480   -2.2515   -2.4786 O   0  0  0  0  0  2           0  0  0
    5.1534    4.7391   -1.7267 O   0  0  0  0  0  2           0  0  0
   -0.9063   -1.7758   -4.0626 O   0  0  0  0  0  2           0  0  0
    5.1808    6.8914   -1.0069 O   0  0  0  0  0  2           0  0  0
    0.0000    0.0000    0.0000 N   0  0  0  0  0  3           0  0  0
   -2.0838   -0.0300    0.7699 N   0  0  0  0  0  3           0  0  0
   -2.0979   -0.0532   -0.5999 C   0  0  0  0  0  4           0  0  0
   -0.8128    0.0000    1.1169 C   0  0  0  0  0  4           0  0  0
   -0.8147   -0.0368   -1.1149 C   0  0  0  0  0  4           0  0  0
    1.9917    1.3968    0.0000 C   0  0  0  0  0  4           0  0  0
    3.0399    4.0154   -0.0310 C   0  0  0  0  0  4           0  0  0
    1.4544    2.3697   -0.8526 C   0  0  0  0  0  4           0  0  0
    3.0604    1.7461    0.8349 C   0  0  0  0  0  4           0  0  0
    1.9692    3.6680   -0.8635 C   0  0  0  0  0  4           0  0  0
    3.5759    3.0445    0.8238 C   0  0  0  0  0  4           0  0  0
   -0.1274   -1.4582   -2.9985 C   0  0  0  0  0  4           0  0  0
    4.7092    5.6196   -0.9999 C   0  0  0  0  0  4           0  0  0
    1.4501   -0.0000   -0.0000 C   0  0  0  0  0  4           0  0  0
   -0.3205    0.0302    2.5193 C   0  0  0  0  0  4           0  0  0
   -0.3326   -0.0479   -2.5190 C   0  0  0  0  0  4           0  0  0
    3.5799    5.4159   -0.0283 C   0  0  0  0  0  4           0  0  0
   -0.1005   -1.3688    3.0862 C   0  0  0  0  0  4           0  0  0
   -1.3525   -2.2465    3.1190 C   0  0  0  0  0  4           0  0  0
   -1.0918   -3.6323    3.6906 C   0  0  0  0  0  4           0  0  0
  1  8  1  0     0  0
  2 17  2  0     0  0
  3 18  2  0     0  0
  4 17  1  0     0  0
  5 18  1  0     0  0
  6  9  1  0     0  0
  6 10  1  0     0  0
  6 19  1  0     0  0
  7  8  1  0     0  0
  7  9  2  0     0  0
  8 10  2  0     0  0
  9 20  1  0     0  0
 10 21  1  0     0  0
 11 13  2  0     0  0
 11 14  1  0     0  0
 11 19  1  0     0  0
 12 15  2  0     0  0
 12 16  1  0     0  0
 12 22  1  0     0  0
 13 15  1  0     0  0
 14 16  2  0     0  0
 17 21  1  0     0  0
 18 22  1  0     0  0
 20 23  1  0     0  0
 23 24  1  0     0  0
 24 25  1  0     0  0
M  END
> <standard_type>
pIC50

> <# Confs.>
25

> <canonical_smiles>
CCCCC1=NC(Cl)=C(CC(O)=O)N1CC2=CC=C(CC(O)=O)C=C2

> <standard_relation>
=

> <Publication_ID>
nan

> <predicted_activity_value>
5.0

> <actual_activity_value>
4.886056647693163

> <Compound>
21

> <standard_units>
nM

> hash
15933815746296400870

$$$$
20
XXILIB    08252103513D 0   0.00000     0.00000

 25 26  0     1  0            999 V2000
   -3.5561   -0.1021   -1.4815 Cl  0  0  0  0  0  1           0  0  0
    0.0761    2.3229   -2.3431 O   0  0  0  0  0  2           0  0  0
    1.9571   -5.9649   -1.6699 O   0  0  0  0  0  2           0  0  0
   -0.3781    1.4406   -4.3844 O   0  0  0  0  0  2           0  0  0
    3.3827   -7.5809   -0.9574 O   0  0  0  0  0  2           0  0  0
    0.0000    0.0000    0.0000 N   0  0  0  0  0  3           0  0  0
   -2.0838   -0.0300    0.7699 N   0  0  0  0  0  3           0  0  0
   -2.0979   -0.0532   -0.5999 C   0  0  0  0  0  4           0  0  0
   -0.8128    0.0000    1.1169 C   0  0  0  0  0  4           0  0  0
   -0.8147   -0.0368   -1.1149 C   0  0  0  0  0  4           0  0  0
    1.9917   -1.3968   -0.0000 C   0  0  0  0  0  4           0  0  0
    3.0399   -4.0154    0.0310 C   0  0  0  0  0  4           0  0  0
    1.4544   -2.3697    0.8526 C   0  0  0  0  0  4           0  0  0
    3.0604   -1.7461   -0.8349 C   0  0  0  0  0  4           0  0  0
    1.9692   -3.6680    0.8635 C   0  0  0  0  0  4           0  0  0
    3.5759   -3.0445   -0.8238 C   0  0  0  0  0  4           0  0  0
   -0.1932    1.3544   -3.0434 C   0  0  0  0  0  4           0  0  0
    2.8784   -6.3217   -0.9456 C   0  0  0  0  0  4           0  0  0
    1.4501    0.0000    0.0000 C   0  0  0  0  0  4           0  0  0
   -0.3205    0.0302    2.5193 C   0  0  0  0  0  4           0  0  0
   -0.3326   -0.0479   -2.5190 C   0  0  0  0  0  4           0  0  0
    3.5799   -5.4159    0.0283 C   0  0  0  0  0  4           0  0  0
   -1.0900    1.0256    3.3820 C   0  0  0  0  0  4           0  0  0
   -1.0176    2.4751    2.8997 C   0  0  0  0  0  4           0  0  0
   -1.7969    3.4357    3.7857 C   0  0  0  0  0  4           0  0  0
  1  8  1  0     0  0
  2 17  2  0     0  0
  3 18  2  0     0  0
  4 17  1  0     0  0
  5 18  1  0     0  0
  6  9  1  0     0  0
  6 10  1  0     0  0
  6 19  1  0     0  0
  7  8  1  0     0  0
  7  9  2  0     0  0
  8 10  2  0     0  0
  9 20  1  0     0  0
 10 21  1  0     0  0
 11 13  2  0     0  0
 11 14  1  0     0  0
 11 19  1  0     0  0
 12 15  2  0     0  0
 12 16  1  0     0  0
 12 22  1  0     0  0
 13 15  1  0     0  0
 14 16  2  0     0  0
 17 21  1  0     0  0
 18 22  1  0     0  0
 20 23  1  0     0  0
 23 24  1  0     0  0
 24 25  1  0     0  0
M  END
> <standard_type>
pIC50

> <# Confs.>
25

> <canonical_smiles>
CCCCC1=NC(Cl)=C(CC(O)=O)N1CC2=CC=C(CC(O)=O)C=C2

> <standard_relation>
=

> <Publication_ID>
nan

> <predicted_activity_value>
5.0

> <actual_activity_value>
4.886056647693163

> <Compound>
21

> <standard_units>
nM

> hash
15933815746296400870

$$$$
20
XXILIB    08252103513D 0   0.00000     0.00000

 25 26  0     1  0            999 V2000
   -3.5561   -0.1021   -1.4815 Cl  0  0  0  0  0  1           0  0  0
    0.1863   -2.3903   -2.2680 O   0  0  0  0  0  2           0  0  0
    3.5178    5.3598    2.3712 O   0  0  0  0  0  2           0  0  0
   -0.3438   -1.6032   -4.3297 O   0  0  0  0  0  2           0  0  0
    4.2702    7.2368    1.3406 O   0  0  0  0  0  2           0  0  0
    0.0000    0.0000    0.0000 N   0  0  0  0  0  3           0  0  0
   -2.0838   -0.0300    0.7699 N   0  0  0  0  0  3           0  0  0
   -2.0979   -0.0532   -0.5999 C   0  0  0  0  0  4           0  0  0
   -0.8128    0.0000    1.1169 C   0  0  0  0  0  4           0  0  0
   -0.8147   -0.0368   -1.1149 C   0  0  0  0  0  4           0  0  0
    1.9917    1.3968    0.0000 C   0  0  0  0  0  4           0  0  0
    3.0110    4.0265   -0.0437 C   0  0  0  0  0  4           0  0  0
    1.1251    2.4973    0.0000 C   0  0  0  0  0  4           0  0  0
    3.3732    1.6248   -0.0249 C   0  0  0  0  0  4           0  0  0
    1.6298    3.7996   -0.0153 C   0  0  0  0  0  4           0  0  0
    3.8783    2.9272   -0.0408 C   0  0  0  0  0  4           0  0  0
   -0.1274   -1.4582   -2.9985 C   0  0  0  0  0  4           0  0  0
    3.7622    5.9791    1.3428 C   0  0  0  0  0  4           0  0  0
    1.4501    0.0000   -0.0000 C   0  0  0  0  0  4           0  0  0
   -0.3205    0.0302    2.5193 C   0  0  0  0  0  4           0  0  0
   -0.3326   -0.0479   -2.5190 C   0  0  0  0  0  4           0  0  0
    3.5536    5.4261   -0.0398 C   0  0  0  0  0  4           0  0  0
   -0.1005   -1.3688    3.0862 C   0  0  0  0  0  4           0  0  0
    0.4068   -1.3985    4.5287 C   0  0  0  0  0  4           0  0  0
    1.7435   -0.6929    4.7031 C   0  0  0  0  0  4           0  0  0
  1  8  1  0     0  0
  2 17  2  0     0  0
  3 18  2  0     0  0
  4 17  1  0     0  0
  5 18  1  0     0  0
  6  9  1  0     0  0
  6 10  1  0     0  0
  6 19  1  0     0  0
  7  8  1  0     0  0
  7  9  2  0     0  0
  8 10  2  0     0  0
  9 20  1  0     0  0
 10 21  1  0     0  0
 11 13  2  0     0  0
 11 14  1  0     0  0
 11 19  1  0     0  0
 12 15  2  0     0  0
 12 16  1  0     0  0
 12 22  1  0     0  0
 13 15  1  0     0  0
 14 16  2  0     0  0
 17 21  1  0     0  0
 18 22  1  0     0  0
 20 23  1  0     0  0
 23 24  1  0     0  0
 24 25  1  0     0  0
M  END
> <standard_type>
pIC50

> <# Confs.>
25

> <canonical_smiles>
CCCCC1=NC(Cl)=C(CC(O)=O)N1CC2=CC=C(CC(O)=O)C=C2

> <standard_relation>
=

> <Publication_ID>
nan

> <predicted_activity_value>
5.0

> <actual_activity_value>
4.886056647693163

> <Compound>
21

> <standard_units>
nM

> hash
15933815746296400870

$$$$
20
XXILIB    08252103513D 0   0.00000     0.00000

 25 26  0     1  0            999 V2000
   -3.5561   -0.1021   -1.4815 Cl  0  0  0  0  0  1           0  0  0
   -0.4469    2.3580   -2.3883 O   0  0  0  0  0  2           0  0  0
    3.5178   -5.3598   -2.3712 O   0  0  0  0  0  2           0  0  0
    0.2636    1.4010   -4.3197 O   0  0  0  0  0  2           0  0  0
    4.2702   -7.2368   -1.3406 O   0  0  0  0  0  2           0  0  0
    0.0000    0.0000    0.0000 N   0  0  0  0  0  3           0  0  0
   -2.0838   -0.0300    0.7699 N   0  0  0  0  0  3           0  0  0
   -2.0979   -0.0532   -0.5999 C   0  0  0  0  0  4           0  0  0
   -0.8128    0.0000    1.1169 C   0  0  0  0  0  4           0  0  0
   -0.8147   -0.0368   -1.1149 C   0  0  0  0  0  4           0  0  0
    1.9917   -1.3968    0.0000 C   0  0  0  0  0  4           0  0  0
    3.0110   -4.0265    0.0437 C   0  0  0  0  0  4           0  0  0
    1.1251   -2.4973   -0.0000 C   0  0  0  0  0  4           0  0  0
    3.3732   -1.6248    0.0249 C   0  0  0  0  0  4           0  0  0
    1.6298   -3.7996    0.0153 C   0  0  0  0  0  4           0  0  0
    3.8783   -2.9272    0.0408 C   0  0  0  0  0  4           0  0  0
   -0.1932    1.3544   -3.0434 C   0  0  0  0  0  4           0  0  0
    3.7622   -5.9791   -1.3428 C   0  0  0  0  0  4           0  0  0
    1.4501   -0.0000    0.0000 C   0  0  0  0  0  4           0  0  0
   -0.3205    0.0302    2.5193 C   0  0  0  0  0  4           0  0  0
   -0.3326   -0.0479   -2.5190 C   0  0  0  0  0  4           0  0  0
    3.5536   -5.4261    0.0398 C   0  0  0  0  0  4           0  0  0
   -0.1569    1.4528    3.0452 C   0  0  0  0  0  4           0  0  0
    0.3480    1.5447    4.4859 C   0  0  0  0  0  4           0  0  0
    1.7117    0.8984    4.6799 C   0  0  0  0  0  4           0  0  0
  1  8  1  0     0  0
  2 17  2  0     0  0
  3 18  2  0     0  0
  4 17  1  0     0  0
  5 18  1  0     0  0
  6  9  1  0     0  0
  6 10  1  0     0  0
  6 19  1  0     0  0
  7  8  1  0     0  0
  7  9  2  0     0  0
  8 10  2  0     0  0
  9 20  1  0     0  0
 10 21  1  0     0  0
 11 13  2  0     0  0
 11 14  1  0     0  0
 11 19  1  0     0  0
 12 15  2  0     0  0
 12 16  1  0     0  0
 12 22  1  0     0  0
 13 15  1  0     0  0
 14 16  2  0     0  0
 17 21  1  0     0  0
 18 22  1  0     0  0
 20 23  1  0     0  0
 23 24  1  0     0  0
 24 25  1  0     0  0
M  END
> <standard_type>
pIC50

> <# Confs.>
25

> <canonical_smiles>
CCCCC1=NC(Cl)=C(CC(O)=O)N1CC2=CC=C(CC(O)=O)C=C2

> <standard_relation>
=

> <Publication_ID>
nan

> <predicted_activity_value>
5.0

> <actual_activity_value>
4.886056647693163

> <Compound>
21

> <standard_units>
nM

> hash
15933815746296400870

$$$$
20
XXILIB    08252103513D 0   0.00000     0.00000

 25 26  0     1  0            999 V2000
   -3.5561   -0.1021   -1.4815 Cl  0  0  0  0  0  1           0  0  0
    0.0761    2.3229   -2.3431 O   0  0  0  0  0  2           0  0  0
    1.9571   -5.9649   -1.6699 O   0  0  0  0  0  2           0  0  0
   -0.3781    1.4406   -4.3844 O   0  0  0  0  0  2           0  0  0
    3.3827   -7.5809   -0.9574 O   0  0  0  0  0  2           0  0  0
    0.0000    0.0000    0.0000 N   0  0  0  0  0  3           0  0  0
   -2.0838   -0.0300    0.7699 N   0  0  0  0  0  3           0  0  0
   -2.0979   -0.0532   -0.5999 C   0  0  0  0  0  4           0  0  0
   -0.8128    0.0000    1.1169 C   0  0  0  0  0  4           0  0  0
   -0.8147   -0.0368   -1.1149 C   0  0  0  0  0  4           0  0  0
    1.9917   -1.3968   -0.0000 C   0  0  0  0  0  4           0  0  0
    3.0399   -4.0154    0.0310 C   0  0  0  0  0  4           0  0  0
    1.4544   -2.3697    0.8526 C   0  0  0  0  0  4           0  0  0
    3.0604   -1.7461   -0.8349 C   0  0  0  0  0  4           0  0  0
    1.9692   -3.6680    0.8635 C   0  0  0  0  0  4           0  0  0
    3.5759   -3.0445   -0.8238 C   0  0  0  0  0  4           0  0  0
   -0.1932    1.3544   -3.0434 C   0  0  0  0  0  4           0  0  0
    2.8784   -6.3217   -0.9456 C   0  0  0  0  0  4           0  0  0
    1.4501    0.0000    0.0000 C   0  0  0  0  0  4           0  0  0
   -0.3205    0.0302    2.5193 C   0  0  0  0  0  4           0  0  0
   -0.3326   -0.0479   -2.5190 C   0  0  0  0  0  4           0  0  0
    3.5799   -5.4159    0.0283 C   0  0  0  0  0  4           0  0  0
   -1.0501   -0.9696    3.4110 C   0  0  0  0  0  4           0  0  0
   -0.5838   -0.9821    4.8675 C   0  0  0  0  0  4           0  0  0
   -1.3349   -1.9914    5.7231 C   0  0  0  0  0  4           0  0  0
  1  8  1  0     0  0
  2 17  2  0     0  0
  3 18  2  0     0  0
  4 17  1  0     0  0
  5 18  1  0     0  0
  6  9  1  0     0  0
  6 10  1  0     0  0
  6 19  1  0     0  0
  7  8  1  0     0  0
  7  9  2  0     0  0
  8 10  2  0     0  0
  9 20  1  0     0  0
 10 21  1  0     0  0
 11 13  2  0     0  0
 11 14  1  0     0  0
 11 19  1  0     0  0
 12 15  2  0     0  0
 12 16  1  0     0  0
 12 22  1  0     0  0
 13 15  1  0     0  0
 14 16  2  0     0  0
 17 21  1  0     0  0
 18 22  1  0     0  0
 20 23  1  0     0  0
 23 24  1  0     0  0
 24 25  1  0     0  0
M  END
> <standard_type>
pIC50

> <# Confs.>
25

> <canonical_smiles>
CCCCC1=NC(Cl)=C(CC(O)=O)N1CC2=CC=C(CC(O)=O)C=C2

> <standard_relation>
=

> <Publication_ID>
nan

> <predicted_activity_value>
5.0

> <actual_activity_value>
4.886056647693163

> <Compound>
21

> <standard_units>
nM

> hash
15933815746296400870

$$$$
20
XXILIB    08252103513D 0   0.00000     0.00000

 25 26  0     1  0            999 V2000
   -3.5561   -0.1021   -1.4815 Cl  0  0  0  0  0  1           0  0  0
    0.0761    2.3229   -2.3431 O   0  0  0  0  0  2           0  0  0
    3.2267   -6.4750   -2.1100 O   0  0  0  0  0  2           0  0  0
   -0.3781    1.4406   -4.3844 O   0  0  0  0  0  2           0  0  0
    1.8223   -6.9737   -0.3982 O   0  0  0  0  0  2           0  0  0
    0.0000    0.0000    0.0000 N   0  0  0  0  0  3           0  0  0
   -2.0838   -0.0300    0.7699 N   0  0  0  0  0  3           0  0  0
   -2.0979   -0.0532   -0.5999 C   0  0  0  0  0  4           0  0  0
   -0.8128    0.0000    1.1169 C   0  0  0  0  0  4           0  0  0
   -0.8147   -0.0368   -1.1149 C   0  0  0  0  0  4           0  0  0
    1.9917   -1.3968   -0.0000 C   0  0  0  0  0  4           0  0  0
    3.0399   -4.0154    0.0310 C   0  0  0  0  0  4           0  0  0
    1.4544   -2.3697    0.8526 C   0  0  0  0  0  4           0  0  0
    3.0604   -1.7461   -0.8349 C   0  0  0  0  0  4           0  0  0
    1.9692   -3.6680    0.8635 C   0  0  0  0  0  4           0  0  0
    3.5759   -3.0445   -0.8238 C   0  0  0  0  0  4           0  0  0
   -0.1932    1.3544   -3.0434 C   0  0  0  0  0  4           0  0  0
    2.8784   -6.3217   -0.9456 C   0  0  0  0  0  4           0  0  0
    1.4501    0.0000    0.0000 C   0  0  0  0  0  4           0  0  0
   -0.3205    0.0302    2.5193 C   0  0  0  0  0  4           0  0  0
   -0.3326   -0.0479   -2.5190 C   0  0  0  0  0  4           0  0  0
    3.5799   -5.4159    0.0283 C   0  0  0  0  0  4           0  0  0
   -0.1569    1.4528    3.0452 C   0  0  0  0  0  4           0  0  0
   -1.4429    2.2804    3.0532 C   0  0  0  0  0  4           0  0  0
   -1.2382    3.6915    3.5840 C   0  0  0  0  0  4           0  0  0
  1  8  1  0     0  0
  2 17  2  0     0  0
  3 18  2  0     0  0
  4 17  1  0     0  0
  5 18  1  0     0  0
  6  9  1  0     0  0
  6 10  1  0     0  0
  6 19  1  0     0  0
  7  8  1  0     0  0
  7  9  2  0     0  0
  8 10  2  0     0  0
  9 20  1  0     0  0
 10 21  1  0     0  0
 11 13  2  0     0  0
 11 14  1  0     0  0
 11 19  1  0     0  0
 12 15  2  0     0  0
 12 16  1  0     0  0
 12 22  1  0     0  0
 13 15  1  0     0  0
 14 16  2  0     0  0
 17 21  1  0     0  0
 18 22  1  0     0  0
 20 23  1  0     0  0
 23 24  1  0     0  0
 24 25  1  0     0  0
M  END
> <standard_type>
pIC50

> <# Confs.>
25

> <canonical_smiles>
CCCCC1=NC(Cl)=C(CC(O)=O)N1CC2=CC=C(CC(O)=O)C=C2

> <standard_relation>
=

> <Publication_ID>
nan

> <predicted_activity_value>
5.0

> <actual_activity_value>
4.886056647693163

> <Compound>
21

> <standard_units>
nM

> hash
15933815746296400870

$$$$
20
XXILIB    08252103513D 0   0.00000     0.00000

 25 26  0     1  0            999 V2000
   -3.5561   -0.1021   -1.4815 Cl  0  0  0  0  0  1           0  0  0
    0.0761    2.3229   -2.3431 O   0  0  0  0  0  2           0  0  0
    5.1534   -4.7391    1.7267 O   0  0  0  0  0  2           0  0  0
   -0.3781    1.4406   -4.3844 O   0  0  0  0  0  2           0  0  0
    5.1808   -6.8914    1.0069 O   0  0  0  0  0  2           0  0  0
    0.0000    0.0000    0.0000 N   0  0  0  0  0  3           0  0  0
   -2.0838   -0.0300    0.7699 N   0  0  0  0  0  3           0  0  0
   -2.0979   -0.0532   -0.5999 C   0  0  0  0  0  4           0  0  0
   -0.8128    0.0000    1.1169 C   0  0  0  0  0  4           0  0  0
   -0.8147   -0.0368   -1.1149 C   0  0  0  0  0  4           0  0  0
    1.9917   -1.3968   -0.0000 C   0  0  0  0  0  4           0  0  0
    3.0399   -4.0154    0.0310 C   0  0  0  0  0  4           0  0  0
    1.4544   -2.3697    0.8526 C   0  0  0  0  0  4           0  0  0
    3.0604   -1.7461   -0.8349 C   0  0  0  0  0  4           0  0  0
    1.9692   -3.6680    0.8635 C   0  0  0  0  0  4           0  0  0
    3.5759   -3.0445   -0.8238 C   0  0  0  0  0  4           0  0  0
   -0.1932    1.3544   -3.0434 C   0  0  0  0  0  4           0  0  0
    4.7092   -5.6196    0.9999 C   0  0  0  0  0  4           0  0  0
    1.4501    0.0000    0.0000 C   0  0  0  0  0  4           0  0  0
   -0.3205    0.0302    2.5193 C   0  0  0  0  0  4           0  0  0
   -0.3326   -0.0479   -2.5190 C   0  0  0  0  0  4           0  0  0
    3.5799   -5.4159    0.0283 C   0  0  0  0  0  4           0  0  0
   -1.0900    1.0256    3.3820 C   0  0  0  0  0  4           0  0  0
   -1.0176    2.4751    2.8997 C   0  0  0  0  0  4           0  0  0
   -1.7969    3.4357    3.7857 C   0  0  0  0  0  4           0  0  0
  1  8  1  0     0  0
  2 17  2  0     0  0
  3 18  2  0     0  0
  4 17  1  0     0  0
  5 18  1  0     0  0
  6  9  1  0     0  0
  6 10  1  0     0  0
  6 19  1  0     0  0
  7  8  1  0     0  0
  7  9  2  0     0  0
  8 10  2  0     0  0
  9 20  1  0     0  0
 10 21  1  0     0  0
 11 13  2  0     0  0
 11 14  1  0     0  0
 11 19  1  0     0  0
 12 15  2  0     0  0
 12 16  1  0     0  0
 12 22  1  0     0  0
 13 15  1  0     0  0
 14 16  2  0     0  0
 17 21  1  0     0  0
 18 22  1  0     0  0
 20 23  1  0     0  0
 23 24  1  0     0  0
 24 25  1  0     0  0
M  END
> <standard_type>
pIC50

> <# Confs.>
25

> <canonical_smiles>
CCCCC1=NC(Cl)=C(CC(O)=O)N1CC2=CC=C(CC(O)=O)C=C2

> <standard_relation>
=

> <Publication_ID>
nan

> <predicted_activity_value>
5.0

> <actual_activity_value>
4.886056647693163

> <Compound>
21

> <standard_units>
nM

> hash
15933815746296400870

$$$$
2
XXILIB    08252103513D 0   0.00000     0.00000

 30 33  0     1  0            999 V2000
    5.3113    1.6775   -0.1422 I   0  0  0  0  0  1           0  0  0
    1.6464    2.9455    1.2939 O   0  0  0  0  0  2           0  0  0
   -5.3910   -1.4412    2.9777 N   0  0  0  0  0  3           0  0  0
   -5.3189   -2.5916    3.6333 N   0  0  0  0  0  3           0  0  0
   -4.6472   -0.5866    3.6928 N   0  0  0  0  0  3           0  0  0
   -4.5362   -2.4722    4.7581 N   0  0  0  0  0  3           0  0  0
    1.4524   -0.0000    0.0000 N   0  0  0  0  0  3           0  0  0
    3.5360   -0.7717   -0.0359 N   0  0  0  0  0  3           0  0  0
    3.5433    0.5951   -0.0627 C   0  0  0  0  0  4           0  0  0
   -4.1215   -1.2207    4.7857 C   0  0  0  0  0  4           0  0  0
    2.2650   -1.1177    0.0000 C   0  0  0  0  0  4           0  0  0
    2.2657    1.1179   -0.0387 C   0  0  0  0  0  4           0  0  0
   -3.2747   -0.5838    5.7647 C   0  0  0  0  0  4           0  0  0
   -2.0364    0.0012    5.4141 C   0  0  0  0  0  4           0  0  0
   -1.5275    0.0005    4.0481 C   0  0  0  0  0  4           0  0  0
   -0.5412    0.0000    1.3973 C   0  0  0  0  0  4           0  0  0
   -3.7044   -0.5629    7.1019 C   0  0  0  0  0  4           0  0  0
   -1.2671    0.6012    6.4297 C   0  0  0  0  0  4           0  0  0
   -1.2884   -1.2046    3.3712 C   0  0  0  0  0  4           0  0  0
   -1.2624    1.2052    3.3807 C   0  0  0  0  0  4           0  0  0
   -0.7987   -1.2048    2.0620 C   0  0  0  0  0  4           0  0  0
   -0.7726    1.2049    2.0716 C   0  0  0  0  0  4           0  0  0
   -2.9250    0.0369    8.0896 C   0  0  0  0  0  4           0  0  0
   -1.7078    0.6199    7.7539 C   0  0  0  0  0  4           0  0  0
    1.7647    2.5088   -0.0532 C   0  0  0  0  0  4           0  0  0
    0.0000   -0.0000    0.0000 C   0  0  0  0  0  4           0  0  0
    1.7706   -2.5209    0.0365 C   0  0  0  0  0  4           0  0  0
    2.5073   -3.3979   -0.9697 C   0  0  0  0  0  4           0  0  0
    2.0481   -4.8566   -0.9855 C   0  0  0  0  0  4           0  0  0
    2.8031   -5.7027   -1.9999 C   0  0  0  0  0  4           0  0  0
  1  9  1  0     0  0
  2 25  1  0     0  0
  3  4  2  0     0  0
  3  5  1  0     0  0
  4  6  1  0     0  0
  5 10  1  0     0  0
  6 10  2  0     0  0
  7 11  1  0     0  0
  7 12  1  0     0  0
  7 26  1  0     0  0
  8  9  1  0     0  0
  8 11  2  0     0  0
  9 12  2  0     0  0
 10 13  1  0     0  0
 11 27  1  0     0  0
 12 25  1  0     0  0
 13 14  1  0     0  0
 13 17  2  0     0  0
 14 15  1  0     0  0
 14 18  2  0     0  0
 15 19  2  0     0  0
 15 20  1  0     0  0
 16 21  2  0     0  0
 16 22  1  0     0  0
 16 26  1  0     0  0
 17 23  1  0     0  0
 18 24  1  0     0  0
 19 21  1  0     0  0
 20 22  2  0     0  0
 23 24  2  0     0  0
 27 28  1  0     0  0
 28 29  1  0     0  0
 29 30  1  0     0  0
M  END
> <standard_type>
pIC50

> <# Confs.>
25

> <canonical_smiles>
IC(N=C1CCCC)=C(CO)N1CC2=CC=C(C3=CC=CC=C3C4=NN=NN4)C=C2

> <standard_relation>
=

> <Publication_ID>
nan

> <predicted_activity_value>
7.6777807052660805

> <actual_activity_value>
7.698970004336019

> <Compound>
3

> <standard_units>
nM

> hash
15855483879499829441

$$$$
2
XXILIB    08252103513D 0   0.00000     0.00000

 30 33  0     1  0            999 V2000
    5.3113    1.6775   -0.1422 I   0  0  0  0  0  1           0  0  0
    1.6464    2.9455    1.2939 O   0  0  0  0  0  2           0  0  0
    2.0595   -1.5386    5.7448 N   0  0  0  0  0  3           0  0  0
    1.5495   -2.6808    6.1847 N   0  0  0  0  0  3           0  0  0
    1.0508   -0.6594    5.8109 N   0  0  0  0  0  3           0  0  0
    0.2258   -2.5322    6.5281 N   0  0  0  0  0  3           0  0  0
    1.4524   -0.0000    0.0000 N   0  0  0  0  0  3           0  0  0
    3.5360   -0.7717   -0.0359 N   0  0  0  0  0  3           0  0  0
    3.5433    0.5951   -0.0627 C   0  0  0  0  0  4           0  0  0
   -0.0750   -1.2699    6.2931 C   0  0  0  0  0  4           0  0  0
    2.2650   -1.1177    0.0000 C   0  0  0  0  0  4           0  0  0
    2.2657    1.1179   -0.0387 C   0  0  0  0  0  4           0  0  0
   -1.3406   -0.6047    6.4852 C   0  0  0  0  0  4           0  0  0
   -2.0364    0.0012    5.4141 C   0  0  0  0  0  4           0  0  0
   -1.5275    0.0005    4.0481 C   0  0  0  0  0  4           0  0  0
   -0.5412    0.0000    1.3973 C   0  0  0  0  0  4           0  0  0
   -1.8769   -0.5587    7.7827 C   0  0  0  0  0  4           0  0  0
   -3.2654    0.6330    5.6853 C   0  0  0  0  0  4           0  0  0
   -1.2884   -1.2046    3.3712 C   0  0  0  0  0  4           0  0  0
   -1.2624    1.2052    3.3807 C   0  0  0  0  0  4           0  0  0
   -0.7987   -1.2048    2.0620 C   0  0  0  0  0  4           0  0  0
   -0.7726    1.2049    2.0716 C   0  0  0  0  0  4           0  0  0
   -3.0953    0.0729    8.0261 C   0  0  0  0  0  4           0  0  0
   -3.7901    0.6672    6.9782 C   0  0  0  0  0  4           0  0  0
    1.7647    2.5088   -0.0532 C   0  0  0  0  0  4           0  0  0
    0.0000    0.0000    0.0000 C   0  0  0  0  0  4           0  0  0
    1.7706   -2.5209    0.0365 C   0  0  0  0  0  4           0  0  0
    2.5073   -3.3979   -0.9697 C   0  0  0  0  0  4           0  0  0
    2.0481   -4.8566   -0.9855 C   0  0  0  0  0  4           0  0  0
    2.8031   -5.7027   -1.9999 C   0  0  0  0  0  4           0  0  0
  1  9  1  0     0  0
  2 25  1  0     0  0
  3  4  2  0     0  0
  3  5  1  0     0  0
  4  6  1  0     0  0
  5 10  1  0     0  0
  6 10  2  0     0  0
  7 11  1  0     0  0
  7 12  1  0     0  0
  7 26  1  0     0  0
  8  9  1  0     0  0
  8 11  2  0     0  0
  9 12  2  0     0  0
 10 13  1  0     0  0
 11 27  1  0     0  0
 12 25  1  0     0  0
 13 14  1  0     0  0
 13 17  2  0     0  0
 14 15  1  0     0  0
 14 18  2  0     0  0
 15 19  2  0     0  0
 15 20  1  0     0  0
 16 21  2  0     0  0
 16 22  1  0     0  0
 16 26  1  0     0  0
 17 23  1  0     0  0
 18 24  1  0     0  0
 19 21  1  0     0  0
 20 22  2  0     0  0
 23 24  2  0     0  0
 27 28  1  0     0  0
 28 29  1  0     0  0
 29 30  1  0     0  0
M  END
> <standard_type>
pIC50

> <# Confs.>
25

> <canonical_smiles>
IC(N=C1CCCC)=C(CO)N1CC2=CC=C(C3=CC=CC=C3C4=NN=NN4)C=C2

> <standard_relation>
=

> <Publication_ID>
nan

> <predicted_activity_value>
7.6777807052660805

> <actual_activity_value>
7.698970004336019

> <Compound>
3

> <standard_units>
nM

> hash
15855483879499829441

$$$$
2
XXILIB    08252103513D 0   0.00000     0.00000

 30 33  0     1  0            999 V2000
    5.3113    1.6775   -0.1422 I   0  0  0  0  0  1           0  0  0
    1.6464    2.9455    1.2939 O   0  0  0  0  0  2           0  0  0
   -5.3910   -1.4412    2.9777 N   0  0  0  0  0  3           0  0  0
   -5.3189   -2.5916    3.6333 N   0  0  0  0  0  3           0  0  0
   -4.6472   -0.5866    3.6928 N   0  0  0  0  0  3           0  0  0
   -4.5362   -2.4722    4.7581 N   0  0  0  0  0  3           0  0  0
    1.4524   -0.0000    0.0000 N   0  0  0  0  0  3           0  0  0
    3.5360   -0.7717   -0.0359 N   0  0  0  0  0  3           0  0  0
    3.5433    0.5951   -0.0627 C   0  0  0  0  0  4           0  0  0
   -4.1215   -1.2207    4.7857 C   0  0  0  0  0  4           0  0  0
    2.2650   -1.1177    0.0000 C   0  0  0  0  0  4           0  0  0
    2.2657    1.1179   -0.0387 C   0  0  0  0  0  4           0  0  0
   -3.2747   -0.5838    5.7647 C   0  0  0  0  0  4           0  0  0
   -2.0364    0.0012    5.4141 C   0  0  0  0  0  4           0  0  0
   -1.5275    0.0005    4.0481 C   0  0  0  0  0  4           0  0  0
   -0.5412    0.0000    1.3973 C   0  0  0  0  0  4           0  0  0
   -3.7044   -0.5629    7.1019 C   0  0  0  0  0  4           0  0  0
   -1.2671    0.6012    6.4297 C   0  0  0  0  0  4           0  0  0
   -1.2884   -1.2046    3.3712 C   0  0  0  0  0  4           0  0  0
   -1.2624    1.2052    3.3807 C   0  0  0  0  0  4           0  0  0
   -0.7987   -1.2048    2.0620 C   0  0  0  0  0  4           0  0  0
   -0.7726    1.2049    2.0716 C   0  0  0  0  0  4           0  0  0
   -2.9250    0.0369    8.0896 C   0  0  0  0  0  4           0  0  0
   -1.7078    0.6199    7.7539 C   0  0  0  0  0  4           0  0  0
    1.7647    2.5088   -0.0532 C   0  0  0  0  0  4           0  0  0
    0.0000   -0.0000    0.0000 C   0  0  0  0  0  4           0  0  0
    1.7706   -2.5209    0.0365 C   0  0  0  0  0  4           0  0  0
    2.5073   -3.3979   -0.9697 C   0  0  0  0  0  4           0  0  0
    2.3660   -2.9410   -2.4224 C   0  0  0  0  0  4           0  0  0
    3.1127   -3.8374   -3.3989 C   0  0  0  0  0  4           0  0  0
  1  9  1  0     0  0
  2 25  1  0     0  0
  3  4  2  0     0  0
  3  5  1  0     0  0
  4  6  1  0     0  0
  5 10  1  0     0  0
  6 10  2  0     0  0
  7 11  1  0     0  0
  7 12  1  0     0  0
  7 26  1  0     0  0
  8  9  1  0     0  0
  8 11  2  0     0  0
  9 12  2  0     0  0
 10 13  1  0     0  0
 11 27  1  0     0  0
 12 25  1  0     0  0
 13 14  1  0     0  0
 13 17  2  0     0  0
 14 15  1  0     0  0
 14 18  2  0     0  0
 15 19  2  0     0  0
 15 20  1  0     0  0
 16 21  2  0     0  0
 16 22  1  0     0  0
 16 26  1  0     0  0
 17 23  1  0     0  0
 18 24  1  0     0  0
 19 21  1  0     0  0
 20 22  2  0     0  0
 23 24  2  0     0  0
 27 28  1  0     0  0
 28 29  1  0     0  0
 29 30  1  0     0  0
M  END
> <standard_type>
pIC50

> <# Confs.>
25

> <canonical_smiles>
IC(N=C1CCCC)=C(CO)N1CC2=CC=C(C3=CC=CC=C3C4=NN=NN4)C=C2

> <standard_relation>
=

> <Publication_ID>
nan

> <predicted_activity_value>
7.6777807052660805

> <actual_activity_value>
7.698970004336019

> <Compound>
3

> <standard_units>
nM

> hash
15855483879499829441

$$$$
2
XXILIB    08252103513D 0   0.00000     0.00000

 30 33  0     1  0            999 V2000
    5.3113    1.6775   -0.1422 I   0  0  0  0  0  1           0  0  0
    1.6464    2.9455    1.2939 O   0  0  0  0  0  2           0  0  0
    2.0595   -1.5386    5.7448 N   0  0  0  0  0  3           0  0  0
    1.5495   -2.6808    6.1847 N   0  0  0  0  0  3           0  0  0
    1.0508   -0.6594    5.8109 N   0  0  0  0  0  3           0  0  0
    0.2258   -2.5322    6.5281 N   0  0  0  0  0  3           0  0  0
    1.4524   -0.0000    0.0000 N   0  0  0  0  0  3           0  0  0
    3.5360   -0.7717   -0.0359 N   0  0  0  0  0  3           0  0  0
    3.5433    0.5951   -0.0627 C   0  0  0  0  0  4           0  0  0
   -0.0750   -1.2699    6.2931 C   0  0  0  0  0  4           0  0  0
    2.2650   -1.1177    0.0000 C   0  0  0  0  0  4           0  0  0
    2.2657    1.1179   -0.0387 C   0  0  0  0  0  4           0  0  0
   -1.3406   -0.6047    6.4852 C   0  0  0  0  0  4           0  0  0
   -2.0364    0.0012    5.4141 C   0  0  0  0  0  4           0  0  0
   -1.5275    0.0005    4.0481 C   0  0  0  0  0  4           0  0  0
   -0.5412    0.0000    1.3973 C   0  0  0  0  0  4           0  0  0
   -1.8769   -0.5587    7.7827 C   0  0  0  0  0  4           0  0  0
   -3.2654    0.6330    5.6853 C   0  0  0  0  0  4           0  0  0
   -1.2884   -1.2046    3.3712 C   0  0  0  0  0  4           0  0  0
   -1.2624    1.2052    3.3807 C   0  0  0  0  0  4           0  0  0
   -0.7987   -1.2048    2.0620 C   0  0  0  0  0  4           0  0  0
   -0.7726    1.2049    2.0716 C   0  0  0  0  0  4           0  0  0
   -3.0953    0.0729    8.0261 C   0  0  0  0  0  4           0  0  0
   -3.7901    0.6672    6.9782 C   0  0  0  0  0  4           0  0  0
    1.7647    2.5088   -0.0532 C   0  0  0  0  0  4           0  0  0
    0.0000    0.0000    0.0000 C   0  0  0  0  0  4           0  0  0
    1.7706   -2.5209    0.0365 C   0  0  0  0  0  4           0  0  0
    2.5073   -3.3979   -0.9697 C   0  0  0  0  0  4           0  0  0
    2.3660   -2.9410   -2.4224 C   0  0  0  0  0  4           0  0  0
    3.1127   -3.8374   -3.3989 C   0  0  0  0  0  4           0  0  0
  1  9  1  0     0  0
  2 25  1  0     0  0
  3  4  2  0     0  0
  3  5  1  0     0  0
  4  6  1  0     0  0
  5 10  1  0     0  0
  6 10  2  0     0  0
  7 11  1  0     0  0
  7 12  1  0     0  0
  7 26  1  0     0  0
  8  9  1  0     0  0
  8 11  2  0     0  0
  9 12  2  0     0  0
 10 13  1  0     0  0
 11 27  1  0     0  0
 12 25  1  0     0  0
 13 14  1  0     0  0
 13 17  2  0     0  0
 14 15  1  0     0  0
 14 18  2  0     0  0
 15 19  2  0     0  0
 15 20  1  0     0  0
 16 21  2  0     0  0
 16 22  1  0     0  0
 16 26  1  0     0  0
 17 23  1  0     0  0
 18 24  1  0     0  0
 19 21  1  0     0  0
 20 22  2  0     0  0
 23 24  2  0     0  0
 27 28  1  0     0  0
 28 29  1  0     0  0
 29 30  1  0     0  0
M  END
> <standard_type>
pIC50

> <# Confs.>
25

> <canonical_smiles>
IC(N=C1CCCC)=C(CO)N1CC2=CC=C(C3=CC=CC=C3C4=NN=NN4)C=C2

> <standard_relation>
=

> <Publication_ID>
nan

> <predicted_activity_value>
7.6777807052660805

> <actual_activity_value>
7.698970004336019

> <Compound>
3

> <standard_units>
nM

> hash
15855483879499829441

$$$$
2
XXILIB    08252103513D 0   0.00000     0.00000

 30 33  0     1  0            999 V2000
    5.3113   -1.6775    0.1422 I   0  0  0  0  0  1           0  0  0
    1.6464   -2.9455   -1.2939 O   0  0  0  0  0  2           0  0  0
   -3.2863    3.9132    3.6741 N   0  0  0  0  0  3           0  0  0
   -2.5390    4.4970    4.6010 N   0  0  0  0  0  3           0  0  0
   -3.4154    2.6433    4.0809 N   0  0  0  0  0  3           0  0  0
   -2.1932    3.6068    5.5911 N   0  0  0  0  0  3           0  0  0
    1.4524   -0.0000   -0.0000 N   0  0  0  0  0  3           0  0  0
    3.5360    0.7717    0.0359 N   0  0  0  0  0  3           0  0  0
    3.5433   -0.5951    0.0627 C   0  0  0  0  0  4           0  0  0
   -2.7447    2.4558    5.2590 C   0  0  0  0  0  4           0  0  0
    2.2650    1.1177    0.0000 C   0  0  0  0  0  4           0  0  0
    2.2657   -1.1179    0.0387 C   0  0  0  0  0  4           0  0  0
   -2.6808    1.2000    5.9661 C   0  0  0  0  0  4           0  0  0
   -2.1274    0.0392    5.3788 C   0  0  0  0  0  4           0  0  0
   -1.5880    0.0263    4.0246 C   0  0  0  0  0  4           0  0  0
   -0.5412    0.0000    1.3973 C   0  0  0  0  0  4           0  0  0
   -3.1973    1.1452    7.2712 C   0  0  0  0  0  4           0  0  0
   -2.1046   -1.1486    6.1350 C   0  0  0  0  0  4           0  0  0
   -0.5201    0.8633    3.6688 C   0  0  0  0  0  4           0  0  0
   -2.1271   -0.8211    3.0458 C   0  0  0  0  0  4           0  0  0
   -0.0043    0.8520    2.3697 C   0  0  0  0  0  4           0  0  0
   -1.6113   -0.8323    1.7468 C   0  0  0  0  0  4           0  0  0
   -3.1636   -0.0426    7.9997 C   0  0  0  0  0  4           0  0  0
   -2.6164   -1.1886    7.4329 C   0  0  0  0  0  4           0  0  0
    1.7647   -2.5088    0.0532 C   0  0  0  0  0  4           0  0  0
    0.0000    0.0000   -0.0000 C   0  0  0  0  0  4           0  0  0
    1.7706    2.5209   -0.0365 C   0  0  0  0  0  4           0  0  0
    1.6197    3.0217   -1.4685 C   0  0  0  0  0  4           0  0  0
    1.1140    4.4607   -1.5802 C   0  0  0  0  0  4           0  0  0
    0.9750    4.9279   -3.0215 C   0  0  0  0  0  4           0  0  0
  1  9  1  0     0  0
  2 25  1  0     0  0
  3  4  2  0     0  0
  3  5  1  0     0  0
  4  6  1  0     0  0
  5 10  1  0     0  0
  6 10  2  0     0  0
  7 11  1  0     0  0
  7 12  1  0     0  0
  7 26  1  0     0  0
  8  9  1  0     0  0
  8 11  2  0     0  0
  9 12  2  0     0  0
 10 13  1  0     0  0
 11 27  1  0     0  0
 12 25  1  0     0  0
 13 14  1  0     0  0
 13 17  2  0     0  0
 14 15  1  0     0  0
 14 18  2  0     0  0
 15 19  2  0     0  0
 15 20  1  0     0  0
 16 21  2  0     0  0
 16 22  1  0     0  0
 16 26  1  0     0  0
 17 23  1  0     0  0
 18 24  1  0     0  0
 19 21  1  0     0  0
 20 22  2  0     0  0
 23 24  2  0     0  0
 27 28  1  0     0  0
 28 29  1  0     0  0
 29 30  1  0     0  0
M  END
> <standard_type>
pIC50

> <# Confs.>
25

> <canonical_smiles>
IC(N=C1CCCC)=C(CO)N1CC2=CC=C(C3=CC=CC=C3C4=NN=NN4)C=C2

> <standard_relation>
=

> <Publication_ID>
nan

> <predicted_activity_value>
7.6777807052660805

> <actual_activity_value>
7.698970004336019

> <Compound>
3

> <standard_units>
nM

> hash
15855483879499829441

$$$$
2
XXILIB    08252103513D 0   0.00000     0.00000

 30 33  0     1  0            999 V2000
    5.3113    1.6775   -0.1422 I   0  0  0  0  0  1           0  0  0
    1.6464    2.9455    1.2939 O   0  0  0  0  0  2           0  0  0
   -5.5648    0.7490    2.9119 N   0  0  0  0  0  3           0  0  0
   -6.0691   -0.3954    3.3528 N   0  0  0  0  0  3           0  0  0
   -4.5396    1.0158    3.7321 N   0  0  0  0  0  3           0  0  0
   -5.3721   -0.8551    4.4460 N   0  0  0  0  0  3           0  0  0
    1.4524   -0.0000    0.0000 N   0  0  0  0  0  3           0  0  0
    3.5360   -0.7717   -0.0359 N   0  0  0  0  0  3           0  0  0
    3.5433    0.5951   -0.0627 C   0  0  0  0  0  4           0  0  0
   -4.4209    0.0297    4.6735 C   0  0  0  0  0  4           0  0  0
    2.2650   -1.1177    0.0000 C   0  0  0  0  0  4           0  0  0
    2.2657    1.1179   -0.0387 C   0  0  0  0  0  4           0  0  0
   -3.4185    0.0136    5.7109 C   0  0  0  0  0  4           0  0  0
   -2.0364    0.0012    5.4141 C   0  0  0  0  0  4           0  0  0
   -1.5275    0.0005    4.0481 C   0  0  0  0  0  4           0  0  0
   -0.5412   -0.0000    1.3973 C   0  0  0  0  0  4           0  0  0
   -3.8468   -0.0002    7.0486 C   0  0  0  0  0  4           0  0  0
   -1.1213   -0.0169    6.4844 C   0  0  0  0  0  4           0  0  0
   -1.2884   -1.2046    3.3712 C   0  0  0  0  0  4           0  0  0
   -1.2624    1.2052    3.3807 C   0  0  0  0  0  4           0  0  0
   -0.7987   -1.2048    2.0620 C   0  0  0  0  0  4           0  0  0
   -0.7726    1.2049    2.0716 C   0  0  0  0  0  4           0  0  0
   -2.9216   -0.0183    8.0909 C   0  0  0  0  0  4           0  0  0
   -1.5597   -0.0252    7.8095 C   0  0  0  0  0  4           0  0  0
    1.7647    2.5088   -0.0532 C   0  0  0  0  0  4           0  0  0
    0.0000    0.0000   -0.0000 C   0  0  0  0  0  4           0  0  0
    1.7706   -2.5209    0.0365 C   0  0  0  0  0  4           0  0  0
    2.5073   -3.3979   -0.9697 C   0  0  0  0  0  4           0  0  0
    2.0481   -4.8566   -0.9855 C   0  0  0  0  0  4           0  0  0
    2.8031   -5.7027   -1.9999 C   0  0  0  0  0  4           0  0  0
  1  9  1  0     0  0
  2 25  1  0     0  0
  3  4  2  0     0  0
  3  5  1  0     0  0
  4  6  1  0     0  0
  5 10  1  0     0  0
  6 10  2  0     0  0
  7 11  1  0     0  0
  7 12  1  0     0  0
  7 26  1  0     0  0
  8  9  1  0     0  0
  8 11  2  0     0  0
  9 12  2  0     0  0
 10 13  1  0     0  0
 11 27  1  0     0  0
 12 25  1  0     0  0
 13 14  1  0     0  0
 13 17  2  0     0  0
 14 15  1  0     0  0
 14 18  2  0     0  0
 15 19  2  0     0  0
 15 20  1  0     0  0
 16 21  2  0     0  0
 16 22  1  0     0  0
 16 26  1  0     0  0
 17 23  1  0     0  0
 18 24  1  0     0  0
 19 21  1  0     0  0
 20 22  2  0     0  0
 23 24  2  0     0  0
 27 28  1  0     0  0
 28 29  1  0     0  0
 29 30  1  0     0  0
M  END
> <standard_type>
pIC50

> <# Confs.>
25

> <canonical_smiles>
IC(N=C1CCCC)=C(CO)N1CC2=CC=C(C3=CC=CC=C3C4=NN=NN4)C=C2

> <standard_relation>
=

> <Publication_ID>
nan

> <predicted_activity_value>
7.6777807052660805

> <actual_activity_value>
7.698970004336019

> <Compound>
3

> <standard_units>
nM

> hash
15855483879499829441

$$$$
2
XXILIB    08252103513D 0   0.00000     0.00000

 30 33  0     1  0            999 V2000
    5.3113    1.6775   -0.1422 I   0  0  0  0  0  1           0  0  0
    1.6464    2.9455    1.2939 O   0  0  0  0  0  2           0  0  0
   -5.5648    0.7490    2.9119 N   0  0  0  0  0  3           0  0  0
   -6.0691   -0.3954    3.3528 N   0  0  0  0  0  3           0  0  0
   -4.5396    1.0158    3.7321 N   0  0  0  0  0  3           0  0  0
   -5.3721   -0.8551    4.4460 N   0  0  0  0  0  3           0  0  0
    1.4524   -0.0000    0.0000 N   0  0  0  0  0  3           0  0  0
    3.5360   -0.7717   -0.0359 N   0  0  0  0  0  3           0  0  0
    3.5433    0.5951   -0.0627 C   0  0  0  0  0  4           0  0  0
   -4.4209    0.0297    4.6735 C   0  0  0  0  0  4           0  0  0
    2.2650   -1.1177    0.0000 C   0  0  0  0  0  4           0  0  0
    2.2657    1.1179   -0.0387 C   0  0  0  0  0  4           0  0  0
   -3.4185    0.0136    5.7109 C   0  0  0  0  0  4           0  0  0
   -2.0364    0.0012    5.4141 C   0  0  0  0  0  4           0  0  0
   -1.5275    0.0005    4.0481 C   0  0  0  0  0  4           0  0  0
   -0.5412   -0.0000    1.3973 C   0  0  0  0  0  4           0  0  0
   -3.8468   -0.0002    7.0486 C   0  0  0  0  0  4           0  0  0
   -1.1213   -0.0169    6.4844 C   0  0  0  0  0  4           0  0  0
   -1.2884   -1.2046    3.3712 C   0  0  0  0  0  4           0  0  0
   -1.2624    1.2052    3.3807 C   0  0  0  0  0  4           0  0  0
   -0.7987   -1.2048    2.0620 C   0  0  0  0  0  4           0  0  0
   -0.7726    1.2049    2.0716 C   0  0  0  0  0  4           0  0  0
   -2.9216   -0.0183    8.0909 C   0  0  0  0  0  4           0  0  0
   -1.5597   -0.0252    7.8095 C   0  0  0  0  0  4           0  0  0
    1.7647    2.5088   -0.0532 C   0  0  0  0  0  4           0  0  0
    0.0000    0.0000   -0.0000 C   0  0  0  0  0  4           0  0  0
    1.7706   -2.5209    0.0365 C   0  0  0  0  0  4           0  0  0
    2.5073   -3.3979   -0.9697 C   0  0  0  0  0  4           0  0  0
    2.3660   -2.9410   -2.4224 C   0  0  0  0  0  4           0  0  0
    3.1127   -3.8374   -3.3989 C   0  0  0  0  0  4           0  0  0
  1  9  1  0     0  0
  2 25  1  0     0  0
  3  4  2  0     0  0
  3  5  1  0     0  0
  4  6  1  0     0  0
  5 10  1  0     0  0
  6 10  2  0     0  0
  7 11  1  0     0  0
  7 12  1  0     0  0
  7 26  1  0     0  0
  8  9  1  0     0  0
  8 11  2  0     0  0
  9 12  2  0     0  0
 10 13  1  0     0  0
 11 27  1  0     0  0
 12 25  1  0     0  0
 13 14  1  0     0  0
 13 17  2  0     0  0
 14 15  1  0     0  0
 14 18  2  0     0  0
 15 19  2  0     0  0
 15 20  1  0     0  0
 16 21  2  0     0  0
 16 22  1  0     0  0
 16 26  1  0     0  0
 17 23  1  0     0  0
 18 24  1  0     0  0
 19 21  1  0     0  0
 20 22  2  0     0  0
 23 24  2  0     0  0
 27 28  1  0     0  0
 28 29  1  0     0  0
 29 30  1  0     0  0
M  END
> <standard_type>
pIC50

> <# Confs.>
25

> <canonical_smiles>
IC(N=C1CCCC)=C(CO)N1CC2=CC=C(C3=CC=CC=C3C4=NN=NN4)C=C2

> <standard_relation>
=

> <Publication_ID>
nan

> <predicted_activity_value>
7.6777807052660805

> <actual_activity_value>
7.698970004336019

> <Compound>
3

> <standard_units>
nM

> hash
15855483879499829441

$$$$
2
XXILIB    08252103513D 0   0.00000     0.00000

 30 33  0     1  0            999 V2000
    5.3113   -1.6775    0.1422 I   0  0  0  0  0  1           0  0  0
    0.7385   -2.6146   -0.9240 O   0  0  0  0  0  2           0  0  0
    2.0595   -1.5386    5.7448 N   0  0  0  0  0  3           0  0  0
    1.5495   -2.6808    6.1847 N   0  0  0  0  0  3           0  0  0
    1.0508   -0.6594    5.8109 N   0  0  0  0  0  3           0  0  0
    0.2258   -2.5322    6.5281 N   0  0  0  0  0  3           0  0  0
    1.4524   -0.0000    0.0000 N   0  0  0  0  0  3           0  0  0
    3.5360    0.7717    0.0359 N   0  0  0  0  0  3           0  0  0
    3.5433   -0.5951    0.0627 C   0  0  0  0  0  4           0  0  0
   -0.0750   -1.2699    6.2931 C   0  0  0  0  0  4           0  0  0
    2.2650    1.1177    0.0000 C   0  0  0  0  0  4           0  0  0
    2.2657   -1.1179    0.0387 C   0  0  0  0  0  4           0  0  0
   -1.3406   -0.6047    6.4852 C   0  0  0  0  0  4           0  0  0
   -2.0364    0.0012    5.4141 C   0  0  0  0  0  4           0  0  0
   -1.5275    0.0005    4.0481 C   0  0  0  0  0  4           0  0  0
   -0.5412    0.0000    1.3973 C   0  0  0  0  0  4           0  0  0
   -1.8769   -0.5587    7.7827 C   0  0  0  0  0  4           0  0  0
   -3.2654    0.6330    5.6853 C   0  0  0  0  0  4           0  0  0
   -1.2884   -1.2046    3.3712 C   0  0  0  0  0  4           0  0  0
   -1.2624    1.2052    3.3807 C   0  0  0  0  0  4           0  0  0
   -0.7987   -1.2048    2.0620 C   0  0  0  0  0  4           0  0  0
   -0.7726    1.2049    2.0716 C   0  0  0  0  0  4           0  0  0
   -3.0953    0.0729    8.0261 C   0  0  0  0  0  4           0  0  0
   -3.7901    0.6672    6.9782 C   0  0  0  0  0  4           0  0  0
    1.7647   -2.5088    0.0532 C   0  0  0  0  0  4           0  0  0
    0.0000    0.0000    0.0000 C   0  0  0  0  0  4           0  0  0
    1.7706    2.5209   -0.0365 C   0  0  0  0  0  4           0  0  0
    2.5557    3.3627   -1.0361 C   0  0  0  0  0  4           0  0  0
    2.4842    2.8551   -2.4771 C   0  0  0  0  0  4           0  0  0
    3.2778    3.7174   -3.4473 C   0  0  0  0  0  4           0  0  0
  1  9  1  0     0  0
  2 25  1  0     0  0
  3  4  2  0     0  0
  3  5  1  0     0  0
  4  6  1  0     0  0
  5 10  1  0     0  0
  6 10  2  0     0  0
  7 11  1  0     0  0
  7 12  1  0     0  0
  7 26  1  0     0  0
  8  9  1  0     0  0
  8 11  2  0     0  0
  9 12  2  0     0  0
 10 13  1  0     0  0
 11 27  1  0     0  0
 12 25  1  0     0  0
 13 14  1  0     0  0
 13 17  2  0     0  0
 14 15  1  0     0  0
 14 18  2  0     0  0
 15 19  2  0     0  0
 15 20  1  0     0  0
 16 21  2  0     0  0
 16 22  1  0     0  0
 16 26  1  0     0  0
 17 23  1  0     0  0
 18 24  1  0     0  0
 19 21  1  0     0  0
 20 22  2  0     0  0
 23 24  2  0     0  0
 27 28  1  0     0  0
 28 29  1  0     0  0
 29 30  1  0     0  0
M  END
> <standard_type>
pIC50

> <# Confs.>
25

> <canonical_smiles>
IC(N=C1CCCC)=C(CO)N1CC2=CC=C(C3=CC=CC=C3C4=NN=NN4)C=C2

> <standard_relation>
=

> <Publication_ID>
nan

> <predicted_activity_value>
7.6777807052660805

> <actual_activity_value>
7.698970004336019

> <Compound>
3

> <standard_units>
nM

> hash
15855483879499829441

$$$$
2
XXILIB    08252103513D 0   0.00000     0.00000

 30 33  0     1  0            999 V2000
    5.3113    1.6775   -0.1422 I   0  0  0  0  0  1           0  0  0
    1.6464    2.9455    1.2939 O   0  0  0  0  0  2           0  0  0
    2.0595   -1.5386    5.7448 N   0  0  0  0  0  3           0  0  0
    1.5495   -2.6808    6.1847 N   0  0  0  0  0  3           0  0  0
    1.0508   -0.6594    5.8109 N   0  0  0  0  0  3           0  0  0
    0.2258   -2.5322    6.5281 N   0  0  0  0  0  3           0  0  0
    1.4524   -0.0000   -0.0000 N   0  0  0  0  0  3           0  0  0
    3.5360   -0.7717   -0.0359 N   0  0  0  0  0  3           0  0  0
    3.5433    0.5951   -0.0627 C   0  0  0  0  0  4           0  0  0
   -0.0750   -1.2699    6.2931 C   0  0  0  0  0  4           0  0  0
    2.2650   -1.1177    0.0000 C   0  0  0  0  0  4           0  0  0
    2.2657    1.1179   -0.0387 C   0  0  0  0  0  4           0  0  0
   -1.3406   -0.6047    6.4852 C   0  0  0  0  0  4           0  0  0
   -2.0364    0.0012    5.4141 C   0  0  0  0  0  4           0  0  0
   -1.5275    0.0005    4.0481 C   0  0  0  0  0  4           0  0  0
   -0.5412    0.0000    1.3973 C   0  0  0  0  0  4           0  0  0
   -1.8769   -0.5587    7.7827 C   0  0  0  0  0  4           0  0  0
   -3.2654    0.6330    5.6853 C   0  0  0  0  0  4           0  0  0
   -1.2884   -1.2046    3.3712 C   0  0  0  0  0  4           0  0  0
   -1.2624    1.2052    3.3807 C   0  0  0  0  0  4           0  0  0
   -0.7987   -1.2048    2.0620 C   0  0  0  0  0  4           0  0  0
   -0.7726    1.2049    2.0716 C   0  0  0  0  0  4           0  0  0
   -3.0953    0.0729    8.0261 C   0  0  0  0  0  4           0  0  0
   -3.7901    0.6672    6.9782 C   0  0  0  0  0  4           0  0  0
    1.7647    2.5088   -0.0532 C   0  0  0  0  0  4           0  0  0
    0.0000    0.0000    0.0000 C   0  0  0  0  0  4           0  0  0
    1.7706   -2.5209    0.0365 C   0  0  0  0  0  4           0  0  0
    2.9234   -3.5185    0.0262 C   0  0  0  0  0  4           0  0  0
    2.4859   -4.9836    0.0625 C   0  0  0  0  0  4           0  0  0
    1.6747   -5.3275    1.3028 C   0  0  0  0  0  4           0  0  0
  1  9  1  0     0  0
  2 25  1  0     0  0
  3  4  2  0     0  0
  3  5  1  0     0  0
  4  6  1  0     0  0
  5 10  1  0     0  0
  6 10  2  0     0  0
  7 11  1  0     0  0
  7 12  1  0     0  0
  7 26  1  0     0  0
  8  9  1  0     0  0
  8 11  2  0     0  0
  9 12  2  0     0  0
 10 13  1  0     0  0
 11 27  1  0     0  0
 12 25  1  0     0  0
 13 14  1  0     0  0
 13 17  2  0     0  0
 14 15  1  0     0  0
 14 18  2  0     0  0
 15 19  2  0     0  0
 15 20  1  0     0  0
 16 21  2  0     0  0
 16 22  1  0     0  0
 16 26  1  0     0  0
 17 23  1  0     0  0
 18 24  1  0     0  0
 19 21  1  0     0  0
 20 22  2  0     0  0
 23 24  2  0     0  0
 27 28  1  0     0  0
 28 29  1  0     0  0
 29 30  1  0     0  0
M  END
> <standard_type>
pIC50

> <# Confs.>
25

> <canonical_smiles>
IC(N=C1CCCC)=C(CO)N1CC2=CC=C(C3=CC=CC=C3C4=NN=NN4)C=C2

> <standard_relation>
=

> <Publication_ID>
nan

> <predicted_activity_value>
7.6777807052660805

> <actual_activity_value>
7.698970004336019

> <Compound>
3

> <standard_units>
nM

> hash
15855483879499829441

$$$$
2
XXILIB    08252103513D 0   0.00000     0.00000

 30 33  0     1  0            999 V2000
    5.3113   -1.6775    0.1422 I   0  0  0  0  0  1           0  0  0
    1.6464   -2.9455   -1.2939 O   0  0  0  0  0  2           0  0  0
   -3.2863    3.9132    3.6741 N   0  0  0  0  0  3           0  0  0
   -2.5390    4.4970    4.6010 N   0  0  0  0  0  3           0  0  0
   -3.4154    2.6433    4.0809 N   0  0  0  0  0  3           0  0  0
   -2.1932    3.6068    5.5911 N   0  0  0  0  0  3           0  0  0
    1.4524   -0.0000    0.0000 N   0  0  0  0  0  3           0  0  0
    3.5360    0.7717    0.0359 N   0  0  0  0  0  3           0  0  0
    3.5433   -0.5951    0.0627 C   0  0  0  0  0  4           0  0  0
   -2.7447    2.4558    5.2590 C   0  0  0  0  0  4           0  0  0
    2.2650    1.1177    0.0000 C   0  0  0  0  0  4           0  0  0
    2.2657   -1.1179    0.0387 C   0  0  0  0  0  4           0  0  0
   -2.6808    1.2000    5.9661 C   0  0  0  0  0  4           0  0  0
   -2.1274    0.0392    5.3788 C   0  0  0  0  0  4           0  0  0
   -1.5880    0.0263    4.0246 C   0  0  0  0  0  4           0  0  0
   -0.5412    0.0000    1.3973 C   0  0  0  0  0  4           0  0  0
   -3.1973    1.1452    7.2712 C   0  0  0  0  0  4           0  0  0
   -2.1046   -1.1486    6.1350 C   0  0  0  0  0  4           0  0  0
   -0.5201    0.8633    3.6688 C   0  0  0  0  0  4           0  0  0
   -2.1271   -0.8211    3.0458 C   0  0  0  0  0  4           0  0  0
   -0.0043    0.8520    2.3697 C   0  0  0  0  0  4           0  0  0
   -1.6113   -0.8323    1.7468 C   0  0  0  0  0  4           0  0  0
   -3.1636   -0.0426    7.9997 C   0  0  0  0  0  4           0  0  0
   -2.6164   -1.1886    7.4329 C   0  0  0  0  0  4           0  0  0
    1.7647   -2.5088    0.0532 C   0  0  0  0  0  4           0  0  0
    0.0000    0.0000   -0.0000 C   0  0  0  0  0  4           0  0  0
    1.7706    2.5209   -0.0365 C   0  0  0  0  0  4           0  0  0
    2.5557    3.3627   -1.0361 C   0  0  0  0  0  4           0  0  0
    2.4842    2.8551   -2.4771 C   0  0  0  0  0  4           0  0  0
    3.2778    3.7174   -3.4473 C   0  0  0  0  0  4           0  0  0
  1  9  1  0     0  0
  2 25  1  0     0  0
  3  4  2  0     0  0
  3  5  1  0     0  0
  4  6  1  0     0  0
  5 10  1  0     0  0
  6 10  2  0     0  0
  7 11  1  0     0  0
  7 12  1  0     0  0
  7 26  1  0     0  0
  8  9  1  0     0  0
  8 11  2  0     0  0
  9 12  2  0     0  0
 10 13  1  0     0  0
 11 27  1  0     0  0
 12 25  1  0     0  0
 13 14  1  0     0  0
 13 17  2  0     0  0
 14 15  1  0     0  0
 14 18  2  0     0  0
 15 19  2  0     0  0
 15 20  1  0     0  0
 16 21  2  0     0  0
 16 22  1  0     0  0
 16 26  1  0     0  0
 17 23  1  0     0  0
 18 24  1  0     0  0
 19 21  1  0     0  0
 20 22  2  0     0  0
 23 24  2  0     0  0
 27 28  1  0     0  0
 28 29  1  0     0  0
 29 30  1  0     0  0
M  END
> <standard_type>
pIC50

> <# Confs.>
25

> <canonical_smiles>
IC(N=C1CCCC)=C(CO)N1CC2=CC=C(C3=CC=CC=C3C4=NN=NN4)C=C2

> <standard_relation>
=

> <Publication_ID>
nan

> <predicted_activity_value>
7.6777807052660805

> <actual_activity_value>
7.698970004336019

> <Compound>
3

> <standard_units>
nM

> hash
15855483879499829441

$$$$
2
XXILIB    08252103513D 0   0.00000     0.00000

 30 33  0     1  0            999 V2000
    5.3113    1.6775   -0.1422 I   0  0  0  0  0  1           0  0  0
    1.6464    2.9455    1.2939 O   0  0  0  0  0  2           0  0  0
   -5.3910   -1.4412    2.9777 N   0  0  0  0  0  3           0  0  0
   -5.3189   -2.5916    3.6333 N   0  0  0  0  0  3           0  0  0
   -4.6472   -0.5866    3.6928 N   0  0  0  0  0  3           0  0  0
   -4.5362   -2.4722    4.7581 N   0  0  0  0  0  3           0  0  0
    1.4524   -0.0000   -0.0000 N   0  0  0  0  0  3           0  0  0
    3.5360   -0.7717   -0.0359 N   0  0  0  0  0  3           0  0  0
    3.5433    0.5951   -0.0627 C   0  0  0  0  0  4           0  0  0
   -4.1215   -1.2207    4.7857 C   0  0  0  0  0  4           0  0  0
    2.2650   -1.1177    0.0000 C   0  0  0  0  0  4           0  0  0
    2.2657    1.1179   -0.0387 C   0  0  0  0  0  4           0  0  0
   -3.2747   -0.5838    5.7647 C   0  0  0  0  0  4           0  0  0
   -2.0364    0.0012    5.4141 C   0  0  0  0  0  4           0  0  0
   -1.5275    0.0005    4.0481 C   0  0  0  0  0  4           0  0  0
   -0.5412    0.0000    1.3973 C   0  0  0  0  0  4           0  0  0
   -3.7044   -0.5629    7.1019 C   0  0  0  0  0  4           0  0  0
   -1.2671    0.6012    6.4297 C   0  0  0  0  0  4           0  0  0
   -1.2884   -1.2046    3.3712 C   0  0  0  0  0  4           0  0  0
   -1.2624    1.2052    3.3807 C   0  0  0  0  0  4           0  0  0
   -0.7987   -1.2048    2.0620 C   0  0  0  0  0  4           0  0  0
   -0.7726    1.2049    2.0716 C   0  0  0  0  0  4           0  0  0
   -2.9250    0.0369    8.0896 C   0  0  0  0  0  4           0  0  0
   -1.7078    0.6199    7.7539 C   0  0  0  0  0  4           0  0  0
    1.7647    2.5088   -0.0532 C   0  0  0  0  0  4           0  0  0
    0.0000   -0.0000    0.0000 C   0  0  0  0  0  4           0  0  0
    1.7706   -2.5209    0.0365 C   0  0  0  0  0  4           0  0  0
    2.9234   -3.5185    0.0262 C   0  0  0  0  0  4           0  0  0
    2.4859   -4.9836    0.0625 C   0  0  0  0  0  4           0  0  0
    1.6747   -5.3275    1.3028 C   0  0  0  0  0  4           0  0  0
  1  9  1  0     0  0
  2 25  1  0     0  0
  3  4  2  0     0  0
  3  5  1  0     0  0
  4  6  1  0     0  0
  5 10  1  0     0  0
  6 10  2  0     0  0
  7 11  1  0     0  0
  7 12  1  0     0  0
  7 26  1  0     0  0
  8  9  1  0     0  0
  8 11  2  0     0  0
  9 12  2  0     0  0
 10 13  1  0     0  0
 11 27  1  0     0  0
 12 25  1  0     0  0
 13 14  1  0     0  0
 13 17  2  0     0  0
 14 15  1  0     0  0
 14 18  2  0     0  0
 15 19  2  0     0  0
 15 20  1  0     0  0
 16 21  2  0     0  0
 16 22  1  0     0  0
 16 26  1  0     0  0
 17 23  1  0     0  0
 18 24  1  0     0  0
 19 21  1  0     0  0
 20 22  2  0     0  0
 23 24  2  0     0  0
 27 28  1  0     0  0
 28 29  1  0     0  0
 29 30  1  0     0  0
M  END
> <standard_type>
pIC50

> <# Confs.>
25

> <canonical_smiles>
IC(N=C1CCCC)=C(CO)N1CC2=CC=C(C3=CC=CC=C3C4=NN=NN4)C=C2

> <standard_relation>
=

> <Publication_ID>
nan

> <predicted_activity_value>
7.6777807052660805

> <actual_activity_value>
7.698970004336019

> <Compound>
3

> <standard_units>
nM

> hash
15855483879499829441

$$$$
2
XXILIB    08252103513D 0   0.00000     0.00000

 30 33  0     1  0            999 V2000
    5.3113   -1.6775    0.1422 I   0  0  0  0  0  1           0  0  0
    1.6464   -2.9455   -1.2939 O   0  0  0  0  0  2           0  0  0
   -3.2863    3.9132    3.6741 N   0  0  0  0  0  3           0  0  0
   -2.5390    4.4970    4.6010 N   0  0  0  0  0  3           0  0  0
   -3.4154    2.6433    4.0809 N   0  0  0  0  0  3           0  0  0
   -2.1932    3.6068    5.5911 N   0  0  0  0  0  3           0  0  0
    1.4524    0.0000    0.0000 N   0  0  0  0  0  3           0  0  0
    3.5360    0.7717    0.0359 N   0  0  0  0  0  3           0  0  0
    3.5433   -0.5951    0.0627 C   0  0  0  0  0  4           0  0  0
   -2.7447    2.4558    5.2590 C   0  0  0  0  0  4           0  0  0
    2.2650    1.1177    0.0000 C   0  0  0  0  0  4           0  0  0
    2.2657   -1.1179    0.0387 C   0  0  0  0  0  4           0  0  0
   -2.6808    1.2000    5.9661 C   0  0  0  0  0  4           0  0  0
   -2.1274    0.0392    5.3788 C   0  0  0  0  0  4           0  0  0
   -1.5880    0.0263    4.0246 C   0  0  0  0  0  4           0  0  0
   -0.5412    0.0000    1.3973 C   0  0  0  0  0  4           0  0  0
   -3.1973    1.1452    7.2712 C   0  0  0  0  0  4           0  0  0
   -2.1046   -1.1486    6.1350 C   0  0  0  0  0  4           0  0  0
   -0.5201    0.8633    3.6688 C   0  0  0  0  0  4           0  0  0
   -2.1271   -0.8211    3.0458 C   0  0  0  0  0  4           0  0  0
   -0.0043    0.8520    2.3697 C   0  0  0  0  0  4           0  0  0
   -1.6113   -0.8323    1.7468 C   0  0  0  0  0  4           0  0  0
   -3.1636   -0.0426    7.9997 C   0  0  0  0  0  4           0  0  0
   -2.6164   -1.1886    7.4329 C   0  0  0  0  0  4           0  0  0
    1.7647   -2.5088    0.0532 C   0  0  0  0  0  4           0  0  0
    0.0000    0.0000   -0.0000 C   0  0  0  0  0  4           0  0  0
    1.7706    2.5209   -0.0365 C   0  0  0  0  0  4           0  0  0
    2.5073    3.3979    0.9697 C   0  0  0  0  0  4           0  0  0
    2.0481    4.8566    0.9855 C   0  0  0  0  0  4           0  0  0
    2.8031    5.7027    1.9999 C   0  0  0  0  0  4           0  0  0
  1  9  1  0     0  0
  2 25  1  0     0  0
  3  4  2  0     0  0
  3  5  1  0     0  0
  4  6  1  0     0  0
  5 10  1  0     0  0
  6 10  2  0     0  0
  7 11  1  0     0  0
  7 12  1  0     0  0
  7 26  1  0     0  0
  8  9  1  0     0  0
  8 11  2  0     0  0
  9 12  2  0     0  0
 10 13  1  0     0  0
 11 27  1  0     0  0
 12 25  1  0     0  0
 13 14  1  0     0  0
 13 17  2  0     0  0
 14 15  1  0     0  0
 14 18  2  0     0  0
 15 19  2  0     0  0
 15 20  1  0     0  0
 16 21  2  0     0  0
 16 22  1  0     0  0
 16 26  1  0     0  0
 17 23  1  0     0  0
 18 24  1  0     0  0
 19 21  1  0     0  0
 20 22  2  0     0  0
 23 24  2  0     0  0
 27 28  1  0     0  0
 28 29  1  0     0  0
 29 30  1  0     0  0
M  END
> <standard_type>
pIC50

> <# Confs.>
25

> <canonical_smiles>
IC(N=C1CCCC)=C(CO)N1CC2=CC=C(C3=CC=CC=C3C4=NN=NN4)C=C2

> <standard_relation>
=

> <Publication_ID>
nan

> <predicted_activity_value>
7.6777807052660805

> <actual_activity_value>
7.698970004336019

> <Compound>
3

> <standard_units>
nM

> hash
15855483879499829441

$$$$
2
XXILIB    08252103513D 0   0.00000     0.00000

 30 33  0     1  0            999 V2000
    5.3113   -1.6775    0.1422 I   0  0  0  0  0  1           0  0  0
    0.7385   -2.6146   -0.9240 O   0  0  0  0  0  2           0  0  0
    2.0595   -1.5386    5.7448 N   0  0  0  0  0  3           0  0  0
    1.5495   -2.6808    6.1847 N   0  0  0  0  0  3           0  0  0
    1.0508   -0.6594    5.8109 N   0  0  0  0  0  3           0  0  0
    0.2258   -2.5322    6.5281 N   0  0  0  0  0  3           0  0  0
    1.4524   -0.0000    0.0000 N   0  0  0  0  0  3           0  0  0
    3.5360    0.7717    0.0359 N   0  0  0  0  0  3           0  0  0
    3.5433   -0.5951    0.0627 C   0  0  0  0  0  4           0  0  0
   -0.0750   -1.2699    6.2931 C   0  0  0  0  0  4           0  0  0
    2.2650    1.1177    0.0000 C   0  0  0  0  0  4           0  0  0
    2.2657   -1.1179    0.0387 C   0  0  0  0  0  4           0  0  0
   -1.3406   -0.6047    6.4852 C   0  0  0  0  0  4           0  0  0
   -2.0364    0.0012    5.4141 C   0  0  0  0  0  4           0  0  0
   -1.5275    0.0005    4.0481 C   0  0  0  0  0  4           0  0  0
   -0.5412    0.0000    1.3973 C   0  0  0  0  0  4           0  0  0
   -1.8769   -0.5587    7.7827 C   0  0  0  0  0  4           0  0  0
   -3.2654    0.6330    5.6853 C   0  0  0  0  0  4           0  0  0
   -1.2884   -1.2046    3.3712 C   0  0  0  0  0  4           0  0  0
   -1.2624    1.2052    3.3807 C   0  0  0  0  0  4           0  0  0
   -0.7987   -1.2048    2.0620 C   0  0  0  0  0  4           0  0  0
   -0.7726    1.2049    2.0716 C   0  0  0  0  0  4           0  0  0
   -3.0953    0.0729    8.0261 C   0  0  0  0  0  4           0  0  0
   -3.7901    0.6672    6.9782 C   0  0  0  0  0  4           0  0  0
    1.7647   -2.5088    0.0532 C   0  0  0  0  0  4           0  0  0
    0.0000    0.0000    0.0000 C   0  0  0  0  0  4           0  0  0
    1.7706    2.5209   -0.0365 C   0  0  0  0  0  4           0  0  0
    2.5557    3.3627   -1.0361 C   0  0  0  0  0  4           0  0  0
    2.0990    4.8196   -1.1252 C   0  0  0  0  0  4           0  0  0
    2.9028    5.6303   -2.1310 C   0  0  0  0  0  4           0  0  0
  1  9  1  0     0  0
  2 25  1  0     0  0
  3  4  2  0     0  0
  3  5  1  0     0  0
  4  6  1  0     0  0
  5 10  1  0     0  0
  6 10  2  0     0  0
  7 11  1  0     0  0
  7 12  1  0     0  0
  7 26  1  0     0  0
  8  9  1  0     0  0
  8 11  2  0     0  0
  9 12  2  0     0  0
 10 13  1  0     0  0
 11 27  1  0     0  0
 12 25  1  0     0  0
 13 14  1  0     0  0
 13 17  2  0     0  0
 14 15  1  0     0  0
 14 18  2  0     0  0
 15 19  2  0     0  0
 15 20  1  0     0  0
 16 21  2  0     0  0
 16 22  1  0     0  0
 16 26  1  0     0  0
 17 23  1  0     0  0
 18 24  1  0     0  0
 19 21  1  0     0  0
 20 22  2  0     0  0
 23 24  2  0     0  0
 27 28  1  0     0  0
 28 29  1  0     0  0
 29 30  1  0     0  0
M  END
> <standard_type>
pIC50

> <# Confs.>
25

> <canonical_smiles>
IC(N=C1CCCC)=C(CO)N1CC2=CC=C(C3=CC=CC=C3C4=NN=NN4)C=C2

> <standard_relation>
=

> <Publication_ID>
nan

> <predicted_activity_value>
7.6777807052660805

> <actual_activity_value>
7.698970004336019

> <Compound>
3

> <standard_units>
nM

> hash
15855483879499829441

$$$$
2
XXILIB    08252103513D 0   0.00000     0.00000

 30 33  0     1  0            999 V2000
    5.3113   -1.6775    0.1422 I   0  0  0  0  0  1           0  0  0
    1.6464   -2.9455   -1.2939 O   0  0  0  0  0  2           0  0  0
    1.4569   -2.4805    5.6242 N   0  0  0  0  0  3           0  0  0
    0.6696   -3.4950    5.9551 N   0  0  0  0  0  3           0  0  0
    0.6909   -1.3892    5.7548 N   0  0  0  0  0  3           0  0  0
   -0.5890   -3.0549    6.2935 N   0  0  0  0  0  3           0  0  0
    1.4524   -0.0000   -0.0000 N   0  0  0  0  0  3           0  0  0
    3.5360    0.7717    0.0359 N   0  0  0  0  0  3           0  0  0
    3.5433   -0.5951    0.0627 C   0  0  0  0  0  4           0  0  0
   -0.5653   -1.7424    6.1670 C   0  0  0  0  0  4           0  0  0
    2.2650    1.1177    0.0000 C   0  0  0  0  0  4           0  0  0
    2.2657   -1.1179    0.0387 C   0  0  0  0  0  4           0  0  0
   -1.6367   -0.8051    6.4011 C   0  0  0  0  0  4           0  0  0
   -2.1274    0.0392    5.3788 C   0  0  0  0  0  4           0  0  0
   -1.5880    0.0263    4.0246 C   0  0  0  0  0  4           0  0  0
   -0.5412    0.0000    1.3973 C   0  0  0  0  0  4           0  0  0
   -2.1893   -0.7360    7.6906 C   0  0  0  0  0  4           0  0  0
   -3.1741    0.9288    5.6892 C   0  0  0  0  0  4           0  0  0
   -0.5201    0.8633    3.6688 C   0  0  0  0  0  4           0  0  0
   -2.1271   -0.8211    3.0458 C   0  0  0  0  0  4           0  0  0
   -0.0043    0.8520    2.3697 C   0  0  0  0  0  4           0  0  0
   -1.6113   -0.8323    1.7468 C   0  0  0  0  0  4           0  0  0
   -3.2249    0.1531    7.9734 C   0  0  0  0  0  4           0  0  0
   -3.7182    0.9840    6.9733 C   0  0  0  0  0  4           0  0  0
    1.7647   -2.5088    0.0532 C   0  0  0  0  0  4           0  0  0
    0.0000    0.0000    0.0000 C   0  0  0  0  0  4           0  0  0
    1.7706    2.5209   -0.0365 C   0  0  0  0  0  4           0  0  0
    1.6197    3.0217   -1.4685 C   0  0  0  0  0  4           0  0  0
    1.1140    4.4607   -1.5802 C   0  0  0  0  0  4           0  0  0
    0.9750    4.9279   -3.0215 C   0  0  0  0  0  4           0  0  0
  1  9  1  0     0  0
  2 25  1  0     0  0
  3  4  2  0     0  0
  3  5  1  0     0  0
  4  6  1  0     0  0
  5 10  1  0     0  0
  6 10  2  0     0  0
  7 11  1  0     0  0
  7 12  1  0     0  0
  7 26  1  0     0  0
  8  9  1  0     0  0
  8 11  2  0     0  0
  9 12  2  0     0  0
 10 13  1  0     0  0
 11 27  1  0     0  0
 12 25  1  0     0  0
 13 14  1  0     0  0
 13 17  2  0     0  0
 14 15  1  0     0  0
 14 18  2  0     0  0
 15 19  2  0     0  0
 15 20  1  0     0  0
 16 21  2  0     0  0
 16 22  1  0     0  0
 16 26  1  0     0  0
 17 23  1  0     0  0
 18 24  1  0     0  0
 19 21  1  0     0  0
 20 22  2  0     0  0
 23 24  2  0     0  0
 27 28  1  0     0  0
 28 29  1  0     0  0
 29 30  1  0     0  0
M  END
> <standard_type>
pIC50

> <# Confs.>
25

> <canonical_smiles>
IC(N=C1CCCC)=C(CO)N1CC2=CC=C(C3=CC=CC=C3C4=NN=NN4)C=C2

> <standard_relation>
=

> <Publication_ID>
nan

> <predicted_activity_value>
7.6777807052660805

> <actual_activity_value>
7.698970004336019

> <Compound>
3

> <standard_units>
nM

> hash
15855483879499829441

$$$$
2
XXILIB    08252103513D 0   0.00000     0.00000

 30 33  0     1  0            999 V2000
    5.3113   -1.6775    0.1422 I   0  0  0  0  0  1           0  0  0
    1.6464   -2.9455   -1.2939 O   0  0  0  0  0  2           0  0  0
    1.8494   -1.7750    5.7823 N   0  0  0  0  0  3           0  0  0
    2.1962   -0.7466    6.5443 N   0  0  0  0  0  3           0  0  0
    0.5146   -1.7062    5.6922 N   0  0  0  0  0  3           0  0  0
    1.0916   -0.0276    6.9380 N   0  0  0  0  0  3           0  0  0
    1.4524   -0.0000   -0.0000 N   0  0  0  0  0  3           0  0  0
    3.5360    0.7717    0.0359 N   0  0  0  0  0  3           0  0  0
    3.5433   -0.5951    0.0627 C   0  0  0  0  0  4           0  0  0
    0.0496   -0.6321    6.4013 C   0  0  0  0  0  4           0  0  0
    2.2650    1.1177    0.0000 C   0  0  0  0  0  4           0  0  0
    2.2657   -1.1179    0.0387 C   0  0  0  0  0  4           0  0  0
   -1.3434   -0.2740    6.5128 C   0  0  0  0  0  4           0  0  0
   -2.1274    0.0392    5.3788 C   0  0  0  0  0  4           0  0  0
   -1.5880    0.0263    4.0246 C   0  0  0  0  0  4           0  0  0
   -0.5412   -0.0000    1.3973 C   0  0  0  0  0  4           0  0  0
   -1.9180   -0.2306    7.7939 C   0  0  0  0  0  4           0  0  0
   -3.4796    0.3816    5.5727 C   0  0  0  0  0  4           0  0  0
   -0.5201    0.8633    3.6688 C   0  0  0  0  0  4           0  0  0
   -2.1271   -0.8211    3.0458 C   0  0  0  0  0  4           0  0  0
   -0.0043    0.8520    2.3697 C   0  0  0  0  0  4           0  0  0
   -1.6113   -0.8323    1.7468 C   0  0  0  0  0  4           0  0  0
   -3.2589    0.1114    7.9603 C   0  0  0  0  0  4           0  0  0
   -4.0399    0.4160    6.8506 C   0  0  0  0  0  4           0  0  0
    1.7647   -2.5088    0.0532 C   0  0  0  0  0  4           0  0  0
    0.0000    0.0000    0.0000 C   0  0  0  0  0  4           0  0  0
    1.7706    2.5209   -0.0365 C   0  0  0  0  0  4           0  0  0
    1.6197    3.0217   -1.4685 C   0  0  0  0  0  4           0  0  0
    1.1140    4.4607   -1.5802 C   0  0  0  0  0  4           0  0  0
    0.9750    4.9279   -3.0215 C   0  0  0  0  0  4           0  0  0
  1  9  1  0     0  0
  2 25  1  0     0  0
  3  4  2  0     0  0
  3  5  1  0     0  0
  4  6  1  0     0  0
  5 10  1  0     0  0
  6 10  2  0     0  0
  7 11  1  0     0  0
  7 12  1  0     0  0
  7 26  1  0     0  0
  8  9  1  0     0  0
  8 11  2  0     0  0
  9 12  2  0     0  0
 10 13  1  0     0  0
 11 27  1  0     0  0
 12 25  1  0     0  0
 13 14  1  0     0  0
 13 17  2  0     0  0
 14 15  1  0     0  0
 14 18  2  0     0  0
 15 19  2  0     0  0
 15 20  1  0     0  0
 16 21  2  0     0  0
 16 22  1  0     0  0
 16 26  1  0     0  0
 17 23  1  0     0  0
 18 24  1  0     0  0
 19 21  1  0     0  0
 20 22  2  0     0  0
 23 24  2  0     0  0
 27 28  1  0     0  0
 28 29  1  0     0  0
 29 30  1  0     0  0
M  END
> <standard_type>
pIC50

> <# Confs.>
25

> <canonical_smiles>
IC(N=C1CCCC)=C(CO)N1CC2=CC=C(C3=CC=CC=C3C4=NN=NN4)C=C2

> <standard_relation>
=

> <Publication_ID>
nan

> <predicted_activity_value>
7.6777807052660805

> <actual_activity_value>
7.698970004336019

> <Compound>
3

> <standard_units>
nM

> hash
15855483879499829441

$$$$
2
XXILIB    08252103513D 0   0.00000     0.00000

 30 33  0     1  0            999 V2000
    5.3113    1.6775   -0.1422 I   0  0  0  0  0  1           0  0  0
    1.6464    2.9455    1.2939 O   0  0  0  0  0  2           0  0  0
    2.2847    0.6445    5.8276 N   0  0  0  0  0  3           0  0  0
    2.3507   -0.5069    6.4821 N   0  0  0  0  0  3           0  0  0
    0.9798    0.9448    5.7837 N   0  0  0  0  0  3           0  0  0
    1.0982   -0.9384    6.8523 N   0  0  0  0  0  3           0  0  0
    1.4524   -0.0000    0.0000 N   0  0  0  0  0  3           0  0  0
    3.5360   -0.7717   -0.0359 N   0  0  0  0  0  3           0  0  0
    3.5433    0.5951   -0.0627 C   0  0  0  0  0  4           0  0  0
    0.2515   -0.0272    6.4141 C   0  0  0  0  0  4           0  0  0
    2.2650   -1.1177    0.0000 C   0  0  0  0  0  4           0  0  0
    2.2657    1.1179   -0.0387 C   0  0  0  0  0  4           0  0  0
   -1.1852   -0.0105    6.5428 C   0  0  0  0  0  4           0  0  0
   -2.0364    0.0012    5.4141 C   0  0  0  0  0  4           0  0  0
   -1.5275    0.0005    4.0481 C   0  0  0  0  0  4           0  0  0
   -0.5412   -0.0000    1.3973 C   0  0  0  0  0  4           0  0  0
   -1.7366    0.0046    7.8347 C   0  0  0  0  0  4           0  0  0
   -3.4287    0.0199    5.6248 C   0  0  0  0  0  4           0  0  0
   -1.2884   -1.2046    3.3712 C   0  0  0  0  0  4           0  0  0
   -1.2624    1.2052    3.3807 C   0  0  0  0  0  4           0  0  0
   -0.7987   -1.2048    2.0620 C   0  0  0  0  0  4           0  0  0
   -0.7726    1.2049    2.0716 C   0  0  0  0  0  4           0  0  0
   -3.1182    0.0232    8.0176 C   0  0  0  0  0  4           0  0  0
   -3.9641    0.0294    6.9137 C   0  0  0  0  0  4           0  0  0
    1.7647    2.5088   -0.0532 C   0  0  0  0  0  4           0  0  0
    0.0000    0.0000    0.0000 C   0  0  0  0  0  4           0  0  0
    1.7706   -2.5209    0.0365 C   0  0  0  0  0  4           0  0  0
    2.5073   -3.3979   -0.9697 C   0  0  0  0  0  4           0  0  0
    2.0481   -4.8566   -0.9855 C   0  0  0  0  0  4           0  0  0
    2.8031   -5.7027   -1.9999 C   0  0  0  0  0  4           0  0  0
  1  9  1  0     0  0
  2 25  1  0     0  0
  3  4  2  0     0  0
  3  5  1  0     0  0
  4  6  1  0     0  0
  5 10  1  0     0  0
  6 10  2  0     0  0
  7 11  1  0     0  0
  7 12  1  0     0  0
  7 26  1  0     0  0
  8  9  1  0     0  0
  8 11  2  0     0  0
  9 12  2  0     0  0
 10 13  1  0     0  0
 11 27  1  0     0  0
 12 25  1  0     0  0
 13 14  1  0     0  0
 13 17  2  0     0  0
 14 15  1  0     0  0
 14 18  2  0     0  0
 15 19  2  0     0  0
 15 20  1  0     0  0
 16 21  2  0     0  0
 16 22  1  0     0  0
 16 26  1  0     0  0
 17 23  1  0     0  0
 18 24  1  0     0  0
 19 21  1  0     0  0
 20 22  2  0     0  0
 23 24  2  0     0  0
 27 28  1  0     0  0
 28 29  1  0     0  0
 29 30  1  0     0  0
M  END
> <standard_type>
pIC50

> <# Confs.>
25

> <canonical_smiles>
IC(N=C1CCCC)=C(CO)N1CC2=CC=C(C3=CC=CC=C3C4=NN=NN4)C=C2

> <standard_relation>
=

> <Publication_ID>
nan

> <predicted_activity_value>
7.6777807052660805

> <actual_activity_value>
7.698970004336019

> <Compound>
3

> <standard_units>
nM

> hash
15855483879499829441

$$$$
2
XXILIB    08252103513D 0   0.00000     0.00000

 30 33  0     1  0            999 V2000
    5.3113    1.6775   -0.1422 I   0  0  0  0  0  1           0  0  0
    1.6464    2.9455    1.2939 O   0  0  0  0  0  2           0  0  0
    2.2847    0.6445    5.8276 N   0  0  0  0  0  3           0  0  0
    2.3507   -0.5069    6.4821 N   0  0  0  0  0  3           0  0  0
    0.9798    0.9448    5.7837 N   0  0  0  0  0  3           0  0  0
    1.0982   -0.9384    6.8523 N   0  0  0  0  0  3           0  0  0
    1.4524   -0.0000    0.0000 N   0  0  0  0  0  3           0  0  0
    3.5360   -0.7717   -0.0359 N   0  0  0  0  0  3           0  0  0
    3.5433    0.5951   -0.0627 C   0  0  0  0  0  4           0  0  0
    0.2515   -0.0272    6.4141 C   0  0  0  0  0  4           0  0  0
    2.2650   -1.1177    0.0000 C   0  0  0  0  0  4           0  0  0
    2.2657    1.1179   -0.0387 C   0  0  0  0  0  4           0  0  0
   -1.1852   -0.0105    6.5428 C   0  0  0  0  0  4           0  0  0
   -2.0364    0.0012    5.4141 C   0  0  0  0  0  4           0  0  0
   -1.5275    0.0005    4.0481 C   0  0  0  0  0  4           0  0  0
   -0.5412   -0.0000    1.3973 C   0  0  0  0  0  4           0  0  0
   -1.7366    0.0046    7.8347 C   0  0  0  0  0  4           0  0  0
   -3.4287    0.0199    5.6248 C   0  0  0  0  0  4           0  0  0
   -1.2884   -1.2046    3.3712 C   0  0  0  0  0  4           0  0  0
   -1.2624    1.2052    3.3807 C   0  0  0  0  0  4           0  0  0
   -0.7987   -1.2048    2.0620 C   0  0  0  0  0  4           0  0  0
   -0.7726    1.2049    2.0716 C   0  0  0  0  0  4           0  0  0
   -3.1182    0.0232    8.0176 C   0  0  0  0  0  4           0  0  0
   -3.9641    0.0294    6.9137 C   0  0  0  0  0  4           0  0  0
    1.7647    2.5088   -0.0532 C   0  0  0  0  0  4           0  0  0
    0.0000    0.0000    0.0000 C   0  0  0  0  0  4           0  0  0
    1.7706   -2.5209    0.0365 C   0  0  0  0  0  4           0  0  0
    2.5073   -3.3979   -0.9697 C   0  0  0  0  0  4           0  0  0
    2.3660   -2.9410   -2.4224 C   0  0  0  0  0  4           0  0  0
    3.1127   -3.8374   -3.3989 C   0  0  0  0  0  4           0  0  0
  1  9  1  0     0  0
  2 25  1  0     0  0
  3  4  2  0     0  0
  3  5  1  0     0  0
  4  6  1  0     0  0
  5 10  1  0     0  0
  6 10  2  0     0  0
  7 11  1  0     0  0
  7 12  1  0     0  0
  7 26  1  0     0  0
  8  9  1  0     0  0
  8 11  2  0     0  0
  9 12  2  0     0  0
 10 13  1  0     0  0
 11 27  1  0     0  0
 12 25  1  0     0  0
 13 14  1  0     0  0
 13 17  2  0     0  0
 14 15  1  0     0  0
 14 18  2  0     0  0
 15 19  2  0     0  0
 15 20  1  0     0  0
 16 21  2  0     0  0
 16 22  1  0     0  0
 16 26  1  0     0  0
 17 23  1  0     0  0
 18 24  1  0     0  0
 19 21  1  0     0  0
 20 22  2  0     0  0
 23 24  2  0     0  0
 27 28  1  0     0  0
 28 29  1  0     0  0
 29 30  1  0     0  0
M  END
> <standard_type>
pIC50

> <# Confs.>
25

> <canonical_smiles>
IC(N=C1CCCC)=C(CO)N1CC2=CC=C(C3=CC=CC=C3C4=NN=NN4)C=C2

> <standard_relation>
=

> <Publication_ID>
nan

> <predicted_activity_value>
7.6777807052660805

> <actual_activity_value>
7.698970004336019

> <Compound>
3

> <standard_units>
nM

> hash
15855483879499829441

$$$$
2
XXILIB    08252103513D 0   0.00000     0.00000

 30 33  0     1  0            999 V2000
    5.3113   -1.6775    0.1422 I   0  0  0  0  0  1           0  0  0
    0.7385   -2.6146   -0.9240 O   0  0  0  0  0  2           0  0  0
   -5.3910   -1.4412    2.9777 N   0  0  0  0  0  3           0  0  0
   -5.3189   -2.5916    3.6333 N   0  0  0  0  0  3           0  0  0
   -4.6472   -0.5866    3.6928 N   0  0  0  0  0  3           0  0  0
   -4.5362   -2.4722    4.7581 N   0  0  0  0  0  3           0  0  0
    1.4524   -0.0000    0.0000 N   0  0  0  0  0  3           0  0  0
    3.5360    0.7717    0.0359 N   0  0  0  0  0  3           0  0  0
    3.5433   -0.5951    0.0627 C   0  0  0  0  0  4           0  0  0
   -4.1215   -1.2207    4.7857 C   0  0  0  0  0  4           0  0  0
    2.2650    1.1177    0.0000 C   0  0  0  0  0  4           0  0  0
    2.2657   -1.1179    0.0387 C   0  0  0  0  0  4           0  0  0
   -3.2747   -0.5838    5.7647 C   0  0  0  0  0  4           0  0  0
   -2.0364    0.0012    5.4141 C   0  0  0  0  0  4           0  0  0
   -1.5275    0.0005    4.0481 C   0  0  0  0  0  4           0  0  0
   -0.5412    0.0000    1.3973 C   0  0  0  0  0  4           0  0  0
   -3.7044   -0.5629    7.1019 C   0  0  0  0  0  4           0  0  0
   -1.2671    0.6012    6.4297 C   0  0  0  0  0  4           0  0  0
   -1.2884   -1.2046    3.3712 C   0  0  0  0  0  4           0  0  0
   -1.2624    1.2052    3.3807 C   0  0  0  0  0  4           0  0  0
   -0.7987   -1.2048    2.0620 C   0  0  0  0  0  4           0  0  0
   -0.7726    1.2049    2.0716 C   0  0  0  0  0  4           0  0  0
   -2.9250    0.0369    8.0896 C   0  0  0  0  0  4           0  0  0
   -1.7078    0.6199    7.7539 C   0  0  0  0  0  4           0  0  0
    1.7647   -2.5088    0.0532 C   0  0  0  0  0  4           0  0  0
    0.0000   -0.0000    0.0000 C   0  0  0  0  0  4           0  0  0
    1.7706    2.5209   -0.0365 C   0  0  0  0  0  4           0  0  0
    2.5557    3.3627   -1.0361 C   0  0  0  0  0  4           0  0  0
    2.4842    2.8551   -2.4771 C   0  0  0  0  0  4           0  0  0
    3.2778    3.7174   -3.4473 C   0  0  0  0  0  4           0  0  0
  1  9  1  0     0  0
  2 25  1  0     0  0
  3  4  2  0     0  0
  3  5  1  0     0  0
  4  6  1  0     0  0
  5 10  1  0     0  0
  6 10  2  0     0  0
  7 11  1  0     0  0
  7 12  1  0     0  0
  7 26  1  0     0  0
  8  9  1  0     0  0
  8 11  2  0     0  0
  9 12  2  0     0  0
 10 13  1  0     0  0
 11 27  1  0     0  0
 12 25  1  0     0  0
 13 14  1  0     0  0
 13 17  2  0     0  0
 14 15  1  0     0  0
 14 18  2  0     0  0
 15 19  2  0     0  0
 15 20  1  0     0  0
 16 21  2  0     0  0
 16 22  1  0     0  0
 16 26  1  0     0  0
 17 23  1  0     0  0
 18 24  1  0     0  0
 19 21  1  0     0  0
 20 22  2  0     0  0
 23 24  2  0     0  0
 27 28  1  0     0  0
 28 29  1  0     0  0
 29 30  1  0     0  0
M  END
> <standard_type>
pIC50

> <# Confs.>
25

> <canonical_smiles>
IC(N=C1CCCC)=C(CO)N1CC2=CC=C(C3=CC=CC=C3C4=NN=NN4)C=C2

> <standard_relation>
=

> <Publication_ID>
nan

> <predicted_activity_value>
7.6777807052660805

> <actual_activity_value>
7.698970004336019

> <Compound>
3

> <standard_units>
nM

> hash
15855483879499829441

$$$$
2
XXILIB    08252103513D 0   0.00000     0.00000

 30 33  0     1  0            999 V2000
    5.3113   -1.6775    0.1422 I   0  0  0  0  0  1           0  0  0
    0.7385   -2.6146   -0.9240 O   0  0  0  0  0  2           0  0  0
   -5.3910   -1.4412    2.9777 N   0  0  0  0  0  3           0  0  0
   -5.3189   -2.5916    3.6333 N   0  0  0  0  0  3           0  0  0
   -4.6472   -0.5866    3.6928 N   0  0  0  0  0  3           0  0  0
   -4.5362   -2.4722    4.7581 N   0  0  0  0  0  3           0  0  0
    1.4524   -0.0000    0.0000 N   0  0  0  0  0  3           0  0  0
    3.5360    0.7717    0.0359 N   0  0  0  0  0  3           0  0  0
    3.5433   -0.5951    0.0627 C   0  0  0  0  0  4           0  0  0
   -4.1215   -1.2207    4.7857 C   0  0  0  0  0  4           0  0  0
    2.2650    1.1177    0.0000 C   0  0  0  0  0  4           0  0  0
    2.2657   -1.1179    0.0387 C   0  0  0  0  0  4           0  0  0
   -3.2747   -0.5838    5.7647 C   0  0  0  0  0  4           0  0  0
   -2.0364    0.0012    5.4141 C   0  0  0  0  0  4           0  0  0
   -1.5275    0.0005    4.0481 C   0  0  0  0  0  4           0  0  0
   -0.5412    0.0000    1.3973 C   0  0  0  0  0  4           0  0  0
   -3.7044   -0.5629    7.1019 C   0  0  0  0  0  4           0  0  0
   -1.2671    0.6012    6.4297 C   0  0  0  0  0  4           0  0  0
   -1.2884   -1.2046    3.3712 C   0  0  0  0  0  4           0  0  0
   -1.2624    1.2052    3.3807 C   0  0  0  0  0  4           0  0  0
   -0.7987   -1.2048    2.0620 C   0  0  0  0  0  4           0  0  0
   -0.7726    1.2049    2.0716 C   0  0  0  0  0  4           0  0  0
   -2.9250    0.0369    8.0896 C   0  0  0  0  0  4           0  0  0
   -1.7078    0.6199    7.7539 C   0  0  0  0  0  4           0  0  0
    1.7647   -2.5088    0.0532 C   0  0  0  0  0  4           0  0  0
    0.0000   -0.0000    0.0000 C   0  0  0  0  0  4           0  0  0
    1.7706    2.5209   -0.0365 C   0  0  0  0  0  4           0  0  0
    2.5557    3.3627   -1.0361 C   0  0  0  0  0  4           0  0  0
    2.0990    4.8196   -1.1252 C   0  0  0  0  0  4           0  0  0
    2.9028    5.6303   -2.1310 C   0  0  0  0  0  4           0  0  0
  1  9  1  0     0  0
  2 25  1  0     0  0
  3  4  2  0     0  0
  3  5  1  0     0  0
  4  6  1  0     0  0
  5 10  1  0     0  0
  6 10  2  0     0  0
  7 11  1  0     0  0
  7 12  1  0     0  0
  7 26  1  0     0  0
  8  9  1  0     0  0
  8 11  2  0     0  0
  9 12  2  0     0  0
 10 13  1  0     0  0
 11 27  1  0     0  0
 12 25  1  0     0  0
 13 14  1  0     0  0
 13 17  2  0     0  0
 14 15  1  0     0  0
 14 18  2  0     0  0
 15 19  2  0     0  0
 15 20  1  0     0  0
 16 21  2  0     0  0
 16 22  1  0     0  0
 16 26  1  0     0  0
 17 23  1  0     0  0
 18 24  1  0     0  0
 19 21  1  0     0  0
 20 22  2  0     0  0
 23 24  2  0     0  0
 27 28  1  0     0  0
 28 29  1  0     0  0
 29 30  1  0     0  0
M  END
> <standard_type>
pIC50

> <# Confs.>
25

> <canonical_smiles>
IC(N=C1CCCC)=C(CO)N1CC2=CC=C(C3=CC=CC=C3C4=NN=NN4)C=C2

> <standard_relation>
=

> <Publication_ID>
nan

> <predicted_activity_value>
7.6777807052660805

> <actual_activity_value>
7.698970004336019

> <Compound>
3

> <standard_units>
nM

> hash
15855483879499829441

$$$$
2
XXILIB    08252103513D 0   0.00000     0.00000

 30 33  0     1  0            999 V2000
    5.3113    1.6775   -0.1422 I   0  0  0  0  0  1           0  0  0
    1.6464    2.9455    1.2939 O   0  0  0  0  0  2           0  0  0
   -5.3910   -1.4412    2.9777 N   0  0  0  0  0  3           0  0  0
   -5.3189   -2.5916    3.6333 N   0  0  0  0  0  3           0  0  0
   -4.6472   -0.5866    3.6928 N   0  0  0  0  0  3           0  0  0
   -4.5362   -2.4722    4.7581 N   0  0  0  0  0  3           0  0  0
    1.4524   -0.0000   -0.0000 N   0  0  0  0  0  3           0  0  0
    3.5360   -0.7717   -0.0359 N   0  0  0  0  0  3           0  0  0
    3.5433    0.5951   -0.0627 C   0  0  0  0  0  4           0  0  0
   -4.1215   -1.2207    4.7857 C   0  0  0  0  0  4           0  0  0
    2.2650   -1.1177   -0.0000 C   0  0  0  0  0  4           0  0  0
    2.2657    1.1179   -0.0387 C   0  0  0  0  0  4           0  0  0
   -3.2747   -0.5838    5.7647 C   0  0  0  0  0  4           0  0  0
   -2.0364    0.0012    5.4141 C   0  0  0  0  0  4           0  0  0
   -1.5275    0.0005    4.0481 C   0  0  0  0  0  4           0  0  0
   -0.5412    0.0000    1.3973 C   0  0  0  0  0  4           0  0  0
   -3.7044   -0.5629    7.1019 C   0  0  0  0  0  4           0  0  0
   -1.2671    0.6012    6.4297 C   0  0  0  0  0  4           0  0  0
   -1.2884   -1.2046    3.3712 C   0  0  0  0  0  4           0  0  0
   -1.2624    1.2052    3.3807 C   0  0  0  0  0  4           0  0  0
   -0.7987   -1.2048    2.0620 C   0  0  0  0  0  4           0  0  0
   -0.7726    1.2049    2.0716 C   0  0  0  0  0  4           0  0  0
   -2.9250    0.0369    8.0896 C   0  0  0  0  0  4           0  0  0
   -1.7078    0.6199    7.7539 C   0  0  0  0  0  4           0  0  0
    1.7647    2.5088   -0.0532 C   0  0  0  0  0  4           0  0  0
    0.0000   -0.0000    0.0000 C   0  0  0  0  0  4           0  0  0
    1.7706   -2.5209    0.0365 C   0  0  0  0  0  4           0  0  0
    2.5557   -3.3627    1.0361 C   0  0  0  0  0  4           0  0  0
    2.4842   -2.8551    2.4771 C   0  0  0  0  0  4           0  0  0
    3.2778   -3.7174    3.4473 C   0  0  0  0  0  4           0  0  0
  1  9  1  0     0  0
  2 25  1  0     0  0
  3  4  2  0     0  0
  3  5  1  0     0  0
  4  6  1  0     0  0
  5 10  1  0     0  0
  6 10  2  0     0  0
  7 11  1  0     0  0
  7 12  1  0     0  0
  7 26  1  0     0  0
  8  9  1  0     0  0
  8 11  2  0     0  0
  9 12  2  0     0  0
 10 13  1  0     0  0
 11 27  1  0     0  0
 12 25  1  0     0  0
 13 14  1  0     0  0
 13 17  2  0     0  0
 14 15  1  0     0  0
 14 18  2  0     0  0
 15 19  2  0     0  0
 15 20  1  0     0  0
 16 21  2  0     0  0
 16 22  1  0     0  0
 16 26  1  0     0  0
 17 23  1  0     0  0
 18 24  1  0     0  0
 19 21  1  0     0  0
 20 22  2  0     0  0
 23 24  2  0     0  0
 27 28  1  0     0  0
 28 29  1  0     0  0
 29 30  1  0     0  0
M  END
> <standard_type>
pIC50

> <# Confs.>
25

> <canonical_smiles>
IC(N=C1CCCC)=C(CO)N1CC2=CC=C(C3=CC=CC=C3C4=NN=NN4)C=C2

> <standard_relation>
=

> <Publication_ID>
nan

> <predicted_activity_value>
7.6777807052660805

> <actual_activity_value>
7.698970004336019

> <Compound>
3

> <standard_units>
nM

> hash
15855483879499829441

$$$$
2
XXILIB    08252103513D 0   0.00000     0.00000

 30 33  0     1  0            999 V2000
    5.3113   -1.6775    0.1422 I   0  0  0  0  0  1           0  0  0
    1.6464   -2.9455   -1.2939 O   0  0  0  0  0  2           0  0  0
    1.8494   -1.7750    5.7823 N   0  0  0  0  0  3           0  0  0
    2.1962   -0.7466    6.5443 N   0  0  0  0  0  3           0  0  0
    0.5146   -1.7062    5.6922 N   0  0  0  0  0  3           0  0  0
    1.0916   -0.0276    6.9380 N   0  0  0  0  0  3           0  0  0
    1.4524   -0.0000    0.0000 N   0  0  0  0  0  3           0  0  0
    3.5360    0.7717    0.0359 N   0  0  0  0  0  3           0  0  0
    3.5433   -0.5951    0.0627 C   0  0  0  0  0  4           0  0  0
    0.0496   -0.6321    6.4013 C   0  0  0  0  0  4           0  0  0
    2.2650    1.1177    0.0000 C   0  0  0  0  0  4           0  0  0
    2.2657   -1.1179    0.0387 C   0  0  0  0  0  4           0  0  0
   -1.3434   -0.2740    6.5128 C   0  0  0  0  0  4           0  0  0
   -2.1274    0.0392    5.3788 C   0  0  0  0  0  4           0  0  0
   -1.5880    0.0263    4.0246 C   0  0  0  0  0  4           0  0  0
   -0.5412   -0.0000    1.3973 C   0  0  0  0  0  4           0  0  0
   -1.9180   -0.2306    7.7939 C   0  0  0  0  0  4           0  0  0
   -3.4796    0.3816    5.5727 C   0  0  0  0  0  4           0  0  0
   -0.5201    0.8633    3.6688 C   0  0  0  0  0  4           0  0  0
   -2.1271   -0.8211    3.0458 C   0  0  0  0  0  4           0  0  0
   -0.0043    0.8520    2.3697 C   0  0  0  0  0  4           0  0  0
   -1.6113   -0.8323    1.7468 C   0  0  0  0  0  4           0  0  0
   -3.2589    0.1114    7.9603 C   0  0  0  0  0  4           0  0  0
   -4.0399    0.4160    6.8506 C   0  0  0  0  0  4           0  0  0
    1.7647   -2.5088    0.0532 C   0  0  0  0  0  4           0  0  0
    0.0000    0.0000    0.0000 C   0  0  0  0  0  4           0  0  0
    1.7706    2.5209   -0.0365 C   0  0  0  0  0  4           0  0  0
    2.5557    3.3627   -1.0361 C   0  0  0  0  0  4           0  0  0
    2.4842    2.8551   -2.4771 C   0  0  0  0  0  4           0  0  0
    3.2778    3.7174   -3.4473 C   0  0  0  0  0  4           0  0  0
  1  9  1  0     0  0
  2 25  1  0     0  0
  3  4  2  0     0  0
  3  5  1  0     0  0
  4  6  1  0     0  0
  5 10  1  0     0  0
  6 10  2  0     0  0
  7 11  1  0     0  0
  7 12  1  0     0  0
  7 26  1  0     0  0
  8  9  1  0     0  0
  8 11  2  0     0  0
  9 12  2  0     0  0
 10 13  1  0     0  0
 11 27  1  0     0  0
 12 25  1  0     0  0
 13 14  1  0     0  0
 13 17  2  0     0  0
 14 15  1  0     0  0
 14 18  2  0     0  0
 15 19  2  0     0  0
 15 20  1  0     0  0
 16 21  2  0     0  0
 16 22  1  0     0  0
 16 26  1  0     0  0
 17 23  1  0     0  0
 18 24  1  0     0  0
 19 21  1  0     0  0
 20 22  2  0     0  0
 23 24  2  0     0  0
 27 28  1  0     0  0
 28 29  1  0     0  0
 29 30  1  0     0  0
M  END
> <standard_type>
pIC50

> <# Confs.>
25

> <canonical_smiles>
IC(N=C1CCCC)=C(CO)N1CC2=CC=C(C3=CC=CC=C3C4=NN=NN4)C=C2

> <standard_relation>
=

> <Publication_ID>
nan

> <predicted_activity_value>
7.6777807052660805

> <actual_activity_value>
7.698970004336019

> <Compound>
3

> <standard_units>
nM

> hash
15855483879499829441

$$$$
2
XXILIB    08252103513D 0   0.00000     0.00000

 30 33  0     1  0            999 V2000
    5.3113   -1.6775    0.1422 I   0  0  0  0  0  1           0  0  0
    1.6464   -2.9455   -1.2939 O   0  0  0  0  0  2           0  0  0
   -3.9587    3.5139    3.4186 N   0  0  0  0  0  3           0  0  0
   -5.1397    2.9350    3.5874 N   0  0  0  0  0  3           0  0  0
   -3.1186    2.8244    4.2020 N   0  0  0  0  0  3           0  0  0
   -5.0544    1.8850    4.4719 N   0  0  0  0  0  3           0  0  0
    1.4524   -0.0000   -0.0000 N   0  0  0  0  0  3           0  0  0
    3.5360    0.7717    0.0359 N   0  0  0  0  0  3           0  0  0
    3.5433   -0.5951    0.0627 C   0  0  0  0  0  4           0  0  0
   -3.7919    1.8233    4.8479 C   0  0  0  0  0  4           0  0  0
    2.2650    1.1177    0.0000 C   0  0  0  0  0  4           0  0  0
    2.2657   -1.1179    0.0387 C   0  0  0  0  0  4           0  0  0
   -3.1809    0.8970    5.7698 C   0  0  0  0  0  4           0  0  0
   -2.1274    0.0392    5.3788 C   0  0  0  0  0  4           0  0  0
   -1.5880    0.0263    4.0246 C   0  0  0  0  0  4           0  0  0
   -0.5412    0.0000    1.3973 C   0  0  0  0  0  4           0  0  0
   -3.6666    0.8528    7.0871 C   0  0  0  0  0  4           0  0  0
   -1.5864   -0.8382    6.3384 C   0  0  0  0  0  4           0  0  0
   -0.5201    0.8633    3.6688 C   0  0  0  0  0  4           0  0  0
   -2.1271   -0.8211    3.0458 C   0  0  0  0  0  4           0  0  0
   -0.0043    0.8520    2.3697 C   0  0  0  0  0  4           0  0  0
   -1.6113   -0.8323    1.7468 C   0  0  0  0  0  4           0  0  0
   -3.1148   -0.0247    8.0189 C   0  0  0  0  0  4           0  0  0
   -2.0745   -0.8688    7.6457 C   0  0  0  0  0  4           0  0  0
    1.7647   -2.5088    0.0532 C   0  0  0  0  0  4           0  0  0
    0.0000    0.0000   -0.0000 C   0  0  0  0  0  4           0  0  0
    1.7706    2.5209   -0.0365 C   0  0  0  0  0  4           0  0  0
    1.6197    3.0217   -1.4685 C   0  0  0  0  0  4           0  0  0
    1.1140    4.4607   -1.5802 C   0  0  0  0  0  4           0  0  0
    0.9750    4.9279   -3.0215 C   0  0  0  0  0  4           0  0  0
  1  9  1  0     0  0
  2 25  1  0     0  0
  3  4  2  0     0  0
  3  5  1  0     0  0
  4  6  1  0     0  0
  5 10  1  0     0  0
  6 10  2  0     0  0
  7 11  1  0     0  0
  7 12  1  0     0  0
  7 26  1  0     0  0
  8  9  1  0     0  0
  8 11  2  0     0  0
  9 12  2  0     0  0
 10 13  1  0     0  0
 11 27  1  0     0  0
 12 25  1  0     0  0
 13 14  1  0     0  0
 13 17  2  0     0  0
 14 15  1  0     0  0
 14 18  2  0     0  0
 15 19  2  0     0  0
 15 20  1  0     0  0
 16 21  2  0     0  0
 16 22  1  0     0  0
 16 26  1  0     0  0
 17 23  1  0     0  0
 18 24  1  0     0  0
 19 21  1  0     0  0
 20 22  2  0     0  0
 23 24  2  0     0  0
 27 28  1  0     0  0
 28 29  1  0     0  0
 29 30  1  0     0  0
M  END
> <standard_type>
pIC50

> <# Confs.>
25

> <canonical_smiles>
IC(N=C1CCCC)=C(CO)N1CC2=CC=C(C3=CC=CC=C3C4=NN=NN4)C=C2

> <standard_relation>
=

> <Publication_ID>
nan

> <predicted_activity_value>
7.6777807052660805

> <actual_activity_value>
7.698970004336019

> <Compound>
3

> <standard_units>
nM

> hash
15855483879499829441

$$$$
2
XXILIB    08252103513D 0   0.00000     0.00000

 30 33  0     1  0            999 V2000
    5.3113   -1.6775    0.1422 I   0  0  0  0  0  1           0  0  0
    1.6464   -2.9455   -1.2939 O   0  0  0  0  0  2           0  0  0
    1.4569   -2.4805    5.6242 N   0  0  0  0  0  3           0  0  0
    0.6696   -3.4950    5.9551 N   0  0  0  0  0  3           0  0  0
    0.6909   -1.3892    5.7548 N   0  0  0  0  0  3           0  0  0
   -0.5890   -3.0549    6.2935 N   0  0  0  0  0  3           0  0  0
    1.4524    0.0000    0.0000 N   0  0  0  0  0  3           0  0  0
    3.5360    0.7717    0.0359 N   0  0  0  0  0  3           0  0  0
    3.5433   -0.5951    0.0627 C   0  0  0  0  0  4           0  0  0
   -0.5653   -1.7424    6.1670 C   0  0  0  0  0  4           0  0  0
    2.2650    1.1177    0.0000 C   0  0  0  0  0  4           0  0  0
    2.2657   -1.1179    0.0387 C   0  0  0  0  0  4           0  0  0
   -1.6367   -0.8051    6.4011 C   0  0  0  0  0  4           0  0  0
   -2.1274    0.0392    5.3788 C   0  0  0  0  0  4           0  0  0
   -1.5880    0.0263    4.0246 C   0  0  0  0  0  4           0  0  0
   -0.5412    0.0000    1.3973 C   0  0  0  0  0  4           0  0  0
   -2.1893   -0.7360    7.6906 C   0  0  0  0  0  4           0  0  0
   -3.1741    0.9288    5.6892 C   0  0  0  0  0  4           0  0  0
   -0.5201    0.8633    3.6688 C   0  0  0  0  0  4           0  0  0
   -2.1271   -0.8211    3.0458 C   0  0  0  0  0  4           0  0  0
   -0.0043    0.8520    2.3697 C   0  0  0  0  0  4           0  0  0
   -1.6113   -0.8323    1.7468 C   0  0  0  0  0  4           0  0  0
   -3.2249    0.1531    7.9734 C   0  0  0  0  0  4           0  0  0
   -3.7182    0.9840    6.9733 C   0  0  0  0  0  4           0  0  0
    1.7647   -2.5088    0.0532 C   0  0  0  0  0  4           0  0  0
    0.0000    0.0000    0.0000 C   0  0  0  0  0  4           0  0  0
    1.7706    2.5209   -0.0365 C   0  0  0  0  0  4           0  0  0
    2.5073    3.3979    0.9697 C   0  0  0  0  0  4           0  0  0
    2.0481    4.8566    0.9855 C   0  0  0  0  0  4           0  0  0
    2.8031    5.7027    1.9999 C   0  0  0  0  0  4           0  0  0
  1  9  1  0     0  0
  2 25  1  0     0  0
  3  4  2  0     0  0
  3  5  1  0     0  0
  4  6  1  0     0  0
  5 10  1  0     0  0
  6 10  2  0     0  0
  7 11  1  0     0  0
  7 12  1  0     0  0
  7 26  1  0     0  0
  8  9  1  0     0  0
  8 11  2  0     0  0
  9 12  2  0     0  0
 10 13  1  0     0  0
 11 27  1  0     0  0
 12 25  1  0     0  0
 13 14  1  0     0  0
 13 17  2  0     0  0
 14 15  1  0     0  0
 14 18  2  0     0  0
 15 19  2  0     0  0
 15 20  1  0     0  0
 16 21  2  0     0  0
 16 22  1  0     0  0
 16 26  1  0     0  0
 17 23  1  0     0  0
 18 24  1  0     0  0
 19 21  1  0     0  0
 20 22  2  0     0  0
 23 24  2  0     0  0
 27 28  1  0     0  0
 28 29  1  0     0  0
 29 30  1  0     0  0
M  END
> <standard_type>
pIC50

> <# Confs.>
25

> <canonical_smiles>
IC(N=C1CCCC)=C(CO)N1CC2=CC=C(C3=CC=CC=C3C4=NN=NN4)C=C2

> <standard_relation>
=

> <Publication_ID>
nan

> <predicted_activity_value>
7.6777807052660805

> <actual_activity_value>
7.698970004336019

> <Compound>
3

> <standard_units>
nM

> hash
15855483879499829441

$$$$
2
XXILIB    08252103513D 0   0.00000     0.00000

 30 33  0     1  0            999 V2000
    5.3113   -1.6775    0.1422 I   0  0  0  0  0  1           0  0  0
    1.6464   -2.9455   -1.2939 O   0  0  0  0  0  2           0  0  0
    1.8494   -1.7750    5.7823 N   0  0  0  0  0  3           0  0  0
    2.1962   -0.7466    6.5443 N   0  0  0  0  0  3           0  0  0
    0.5146   -1.7062    5.6922 N   0  0  0  0  0  3           0  0  0
    1.0916   -0.0276    6.9380 N   0  0  0  0  0  3           0  0  0
    1.4524    0.0000    0.0000 N   0  0  0  0  0  3           0  0  0
    3.5360    0.7717    0.0359 N   0  0  0  0  0  3           0  0  0
    3.5433   -0.5951    0.0627 C   0  0  0  0  0  4           0  0  0
    0.0496   -0.6321    6.4013 C   0  0  0  0  0  4           0  0  0
    2.2650    1.1177    0.0000 C   0  0  0  0  0  4           0  0  0
    2.2657   -1.1179    0.0387 C   0  0  0  0  0  4           0  0  0
   -1.3434   -0.2740    6.5128 C   0  0  0  0  0  4           0  0  0
   -2.1274    0.0392    5.3788 C   0  0  0  0  0  4           0  0  0
   -1.5880    0.0263    4.0246 C   0  0  0  0  0  4           0  0  0
   -0.5412   -0.0000    1.3973 C   0  0  0  0  0  4           0  0  0
   -1.9180   -0.2306    7.7939 C   0  0  0  0  0  4           0  0  0
   -3.4796    0.3816    5.5727 C   0  0  0  0  0  4           0  0  0
   -0.5201    0.8633    3.6688 C   0  0  0  0  0  4           0  0  0
   -2.1271   -0.8211    3.0458 C   0  0  0  0  0  4           0  0  0
   -0.0043    0.8520    2.3697 C   0  0  0  0  0  4           0  0  0
   -1.6113   -0.8323    1.7468 C   0  0  0  0  0  4           0  0  0
   -3.2589    0.1114    7.9603 C   0  0  0  0  0  4           0  0  0
   -4.0399    0.4160    6.8506 C   0  0  0  0  0  4           0  0  0
    1.7647   -2.5088    0.0532 C   0  0  0  0  0  4           0  0  0
    0.0000    0.0000    0.0000 C   0  0  0  0  0  4           0  0  0
    1.7706    2.5209   -0.0365 C   0  0  0  0  0  4           0  0  0
    2.5073    3.3979    0.9697 C   0  0  0  0  0  4           0  0  0
    2.0481    4.8566    0.9855 C   0  0  0  0  0  4           0  0  0
    2.8031    5.7027    1.9999 C   0  0  0  0  0  4           0  0  0
  1  9  1  0     0  0
  2 25  1  0     0  0
  3  4  2  0     0  0
  3  5  1  0     0  0
  4  6  1  0     0  0
  5 10  1  0     0  0
  6 10  2  0     0  0
  7 11  1  0     0  0
  7 12  1  0     0  0
  7 26  1  0     0  0
  8  9  1  0     0  0
  8 11  2  0     0  0
  9 12  2  0     0  0
 10 13  1  0     0  0
 11 27  1  0     0  0
 12 25  1  0     0  0
 13 14  1  0     0  0
 13 17  2  0     0  0
 14 15  1  0     0  0
 14 18  2  0     0  0
 15 19  2  0     0  0
 15 20  1  0     0  0
 16 21  2  0     0  0
 16 22  1  0     0  0
 16 26  1  0     0  0
 17 23  1  0     0  0
 18 24  1  0     0  0
 19 21  1  0     0  0
 20 22  2  0     0  0
 23 24  2  0     0  0
 27 28  1  0     0  0
 28 29  1  0     0  0
 29 30  1  0     0  0
M  END
> <standard_type>
pIC50

> <# Confs.>
25

> <canonical_smiles>
IC(N=C1CCCC)=C(CO)N1CC2=CC=C(C3=CC=CC=C3C4=NN=NN4)C=C2

> <standard_relation>
=

> <Publication_ID>
nan

> <predicted_activity_value>
7.6777807052660805

> <actual_activity_value>
7.698970004336019

> <Compound>
3

> <standard_units>
nM

> hash
15855483879499829441

$$$$
2
XXILIB    08252103513D 0   0.00000     0.00000

 30 33  0     1  0            999 V2000
    5.3113    1.6775   -0.1422 I   0  0  0  0  0  1           0  0  0
    1.6464    2.9455    1.2939 O   0  0  0  0  0  2           0  0  0
   -5.5751   -0.6431    2.9003 N   0  0  0  0  0  3           0  0  0
   -6.0529    0.5088    3.3511 N   0  0  0  0  0  3           0  0  0
   -4.5596   -0.9431    3.7210 N   0  0  0  0  0  3           0  0  0
   -5.3476    0.9410    4.4502 N   0  0  0  0  0  3           0  0  0
    1.4524   -0.0000    0.0000 N   0  0  0  0  0  3           0  0  0
    3.5360   -0.7717   -0.0359 N   0  0  0  0  0  3           0  0  0
    3.5433    0.5951   -0.0627 C   0  0  0  0  0  4           0  0  0
   -4.4209    0.0297    4.6735 C   0  0  0  0  0  4           0  0  0
    2.2650   -1.1177    0.0000 C   0  0  0  0  0  4           0  0  0
    2.2657    1.1179   -0.0387 C   0  0  0  0  0  4           0  0  0
   -3.4185    0.0136    5.7109 C   0  0  0  0  0  4           0  0  0
   -2.0364    0.0012    5.4141 C   0  0  0  0  0  4           0  0  0
   -1.5275    0.0005    4.0481 C   0  0  0  0  0  4           0  0  0
   -0.5412   -0.0000    1.3973 C   0  0  0  0  0  4           0  0  0
   -3.8468   -0.0002    7.0486 C   0  0  0  0  0  4           0  0  0
   -1.1213   -0.0169    6.4844 C   0  0  0  0  0  4           0  0  0
   -1.2884   -1.2046    3.3712 C   0  0  0  0  0  4           0  0  0
   -1.2624    1.2052    3.3807 C   0  0  0  0  0  4           0  0  0
   -0.7987   -1.2048    2.0620 C   0  0  0  0  0  4           0  0  0
   -0.7726    1.2049    2.0716 C   0  0  0  0  0  4           0  0  0
   -2.9216   -0.0183    8.0909 C   0  0  0  0  0  4           0  0  0
   -1.5597   -0.0252    7.8095 C   0  0  0  0  0  4           0  0  0
    1.7647    2.5088   -0.0532 C   0  0  0  0  0  4           0  0  0
    0.0000    0.0000   -0.0000 C   0  0  0  0  0  4           0  0  0
    1.7706   -2.5209    0.0365 C   0  0  0  0  0  4           0  0  0
    2.5073   -3.3979   -0.9697 C   0  0  0  0  0  4           0  0  0
    2.0481   -4.8566   -0.9855 C   0  0  0  0  0  4           0  0  0
    2.8031   -5.7027   -1.9999 C   0  0  0  0  0  4           0  0  0
  1  9  1  0     0  0
  2 25  1  0     0  0
  3  4  2  0     0  0
  3  5  1  0     0  0
  4  6  1  0     0  0
  5 10  1  0     0  0
  6 10  2  0     0  0
  7 11  1  0     0  0
  7 12  1  0     0  0
  7 26  1  0     0  0
  8  9  1  0     0  0
  8 11  2  0     0  0
  9 12  2  0     0  0
 10 13  1  0     0  0
 11 27  1  0     0  0
 12 25  1  0     0  0
 13 14  1  0     0  0
 13 17  2  0     0  0
 14 15  1  0     0  0
 14 18  2  0     0  0
 15 19  2  0     0  0
 15 20  1  0     0  0
 16 21  2  0     0  0
 16 22  1  0     0  0
 16 26  1  0     0  0
 17 23  1  0     0  0
 18 24  1  0     0  0
 19 21  1  0     0  0
 20 22  2  0     0  0
 23 24  2  0     0  0
 27 28  1  0     0  0
 28 29  1  0     0  0
 29 30  1  0     0  0
M  END
> <standard_type>
pIC50

> <# Confs.>
25

> <canonical_smiles>
IC(N=C1CCCC)=C(CO)N1CC2=CC=C(C3=CC=CC=C3C4=NN=NN4)C=C2

> <standard_relation>
=

> <Publication_ID>
nan

> <predicted_activity_value>
7.6777807052660805

> <actual_activity_value>
7.698970004336019

> <Compound>
3

> <standard_units>
nM

> hash
15855483879499829441

$$$$
18
XXILIB    08252103513D 0   0.00000     0.00000

 38 41  0     1  0            999 V2000
    5.0019    1.4987   -0.0650 Cl  0  0  0  0  0  1           0  0  0
   -5.9198    0.1309    6.3123 O   0  0  0  0  0  2           0  0  0
    1.2816    2.2961   -2.4208 O   0  0  0  0  0  2           0  0  0
   -2.1965   -2.2271    5.7747 O   0  0  0  0  0  2           0  0  0
    1.7888    4.3459   -1.4983 O   0  0  0  0  0  2           0  0  0
   -5.1077   -1.9657    6.0195 O   0  0  0  0  0  2           0  0  0
    1.4522   -0.0000   -0.0000 N   0  0  0  0  0  3           0  0  0
    3.5396   -0.7595   -0.0143 N   0  0  0  0  0  3           0  0  0
   -2.0170    0.0436    5.3535 N   0  0  0  0  0  3           0  0  0
    3.5478    0.6103   -0.0330 C   0  0  0  0  0  4           0  0  0
    2.2701   -1.1133    0.0000 C   0  0  0  0  0  4           0  0  0
    2.2624    1.1179   -0.0275 C   0  0  0  0  0  4           0  0  0
   -1.5247   -0.0054    4.0352 C   0  0  0  0  0  4           0  0  0
   -4.6606   -0.3446    9.0635 C   0  0  0  0  0  4           0  0  0
   -3.7019   -0.2224   10.1018 C   0  0  0  0  0  4           0  0  0
   -4.1936   -0.6138    7.7530 C   0  0  0  0  0  4           0  0  0
   -2.8247   -0.7680    7.4941 C   0  0  0  0  0  4           0  0  0
   -0.5411   -0.0000    1.3972 C   0  0  0  0  0  4           0  0  0
   -1.2877   -1.2124    3.3696 C   0  0  0  0  0  4           0  0  0
   -1.2661    1.2030    3.3807 C   0  0  0  0  0  4           0  0  0
   -6.0256   -0.1870    9.3984 C   0  0  0  0  0  4           0  0  0
   -2.3338   -0.3701    9.8147 C   0  0  0  0  0  4           0  0  0
   -4.1246    0.0465   11.4140 C   0  0  0  0  0  4           0  0  0
   -1.8935   -0.6412    8.5205 C   0  0  0  0  0  4           0  0  0
   -0.7980   -1.2070    2.0606 C   0  0  0  0  0  4           0  0  0
   -0.7744    1.2047    2.0728 C   0  0  0  0  0  4           0  0  0
   -6.4270    0.0784   10.7087 C   0  0  0  0  0  4           0  0  0
   -5.4771    0.1951   11.7153 C   0  0  0  0  0  4           0  0  0
   -5.1538   -0.7639    6.6406 C   0  0  0  0  0  4           0  0  0
    1.5773    2.9971   -1.4622 C   0  0  0  0  0  4           0  0  0
   -2.3183   -1.0571    6.1309 C   0  0  0  0  0  4           0  0  0
    1.6432    4.9565   -2.7842 C   0  0  0  0  0  4           0  0  0
    0.0000    0.0000    0.0000 C   0  0  0  0  0  4           0  0  0
    1.7876   -2.5193    0.0145 C   0  0  0  0  0  4           0  0  0
    1.7697    2.5177   -0.0456 C   0  0  0  0  0  4           0  0  0
    2.5337   -3.3990   -0.9846 C   0  0  0  0  0  4           0  0  0
    2.4088   -2.9408   -2.4381 C   0  0  0  0  0  4           0  0  0
    3.1624   -3.8361   -3.4101 C   0  0  0  0  0  4           0  0  0
  1 10  1  0     0  0
  2 29  2  0     0  0
  3 30  2  0     0  0
  4 31  2  0     0  0
  5 30  1  0     0  0
  5 32  1  0     0  0
  6 29  1  0     0  0
  7 11  1  0     0  0
  7 12  1  0     0  0
  7 33  1  0     0  0
  8 10  1  0     0  0
  8 11  2  0     0  0
  9 13  1  0     0  0
  9 31  1  0     0  0
 10 12  2  0     0  0
 11 34  1  0     0  0
 12 35  1  0     0  0
 13 19  2  0     0  0
 13 20  1  0     0  0
 14 15  1  0     0  0
 14 16  2  0     0  0
 14 21  1  0     0  0
 15 22  2  0     0  0
 15 23  1  0     0  0
 16 17  1  0     0  0
 16 29  1  0     0  0
 17 24  2  0     0  0
 17 31  1  0     0  0
 18 25  2  0     0  0
 18 26  1  0     0  0
 18 33  1  0     0  0
 19 25  1  0     0  0
 20 26  2  0     0  0
 21 27  2  0     0  0
 22 24  1  0     0  0
 23 28  2  0     0  0
 27 28  1  0     0  0
 30 35  1  0     0  0
 34 36  1  0     0  0
 36 37  1  0     0  0
 37 38  1  0     0  0
M  END
> <standard_type>
pIC50

> <# Confs.>
25

> <canonical_smiles>
CCCCC1=NC(Cl)=C(CC(OC)=O)N1CC2=CC=C(NC(C3=CC=C(C=CC=C4)C4=C3C(O)=O)=O)C=C2

> <standard_relation>
=

> <Publication_ID>
nan

> <predicted_activity_value>
5.522878745280337

> <actual_activity_value>
5.236572006437063

> <Compound>
19

> <standard_units>
nM

> hash
9828163350660041123

$$$$
18
XXILIB    08252103513D 0   0.00000     0.00000

 38 41  0     1  0            999 V2000
    5.0019    1.4987   -0.0650 Cl  0  0  0  0  0  1           0  0  0
   -4.6177   -2.3272    6.2078 O   0  0  0  0  0  2           0  0  0
    1.2816    2.2961   -2.4208 O   0  0  0  0  0  2           0  0  0
   -3.7241    1.5485    5.1831 O   0  0  0  0  0  2           0  0  0
    1.7888    4.3459   -1.4983 O   0  0  0  0  0  2           0  0  0
   -6.2242   -0.7293    6.1263 O   0  0  0  0  0  2           0  0  0
    1.4522   -0.0000   -0.0000 N   0  0  0  0  0  3           0  0  0
    3.5396   -0.7595   -0.0143 N   0  0  0  0  0  3           0  0  0
   -2.0717   -0.0680    5.3323 N   0  0  0  0  0  3           0  0  0
    3.5478    0.6103   -0.0330 C   0  0  0  0  0  4           0  0  0
    2.2701   -1.1133    0.0000 C   0  0  0  0  0  4           0  0  0
    2.2624    1.1179   -0.0275 C   0  0  0  0  0  4           0  0  0
   -1.5846   -0.0213    4.0120 C   0  0  0  0  0  4           0  0  0
   -4.7221   -0.6531    9.0066 C   0  0  0  0  0  4           0  0  0
   -4.0465    0.1388    9.9704 C   0  0  0  0  0  4           0  0  0
   -4.4072   -0.4523    7.6396 C   0  0  0  0  0  4           0  0  0
   -3.4461    0.4920    7.2535 C   0  0  0  0  0  4           0  0  0
   -0.5411    0.0000    1.3972 C   0  0  0  0  0  4           0  0  0
   -2.1127    0.8460    3.0501 C   0  0  0  0  0  4           0  0  0
   -0.5368   -0.8791    3.6631 C   0  0  0  0  0  4           0  0  0
   -5.6723   -1.5934    9.4681 C   0  0  0  0  0  4           0  0  0
   -3.0950    1.0871    9.5571 C   0  0  0  0  0  4           0  0  0
   -4.3324   -0.0285   11.3354 C   0  0  0  0  0  4           0  0  0
   -2.7935    1.2661    8.2082 C   0  0  0  0  0  4           0  0  0
   -1.5939    0.8535    1.7524 C   0  0  0  0  0  4           0  0  0
   -0.0220   -0.8705    2.3641 C   0  0  0  0  0  4           0  0  0
   -5.9420   -1.7468   10.8291 C   0  0  0  0  0  4           0  0  0
   -5.2726   -0.9647   11.7616 C   0  0  0  0  0  4           0  0  0
   -5.0734   -1.2623    6.5993 C   0  0  0  0  0  4           0  0  0
    1.5773    2.9971   -1.4622 C   0  0  0  0  0  4           0  0  0
   -3.0985    0.7106    5.8288 C   0  0  0  0  0  4           0  0  0
    1.6432    4.9565   -2.7842 C   0  0  0  0  0  4           0  0  0
    0.0000    0.0000   -0.0000 C   0  0  0  0  0  4           0  0  0
    1.7876   -2.5193    0.0145 C   0  0  0  0  0  4           0  0  0
    1.7697    2.5177   -0.0456 C   0  0  0  0  0  4           0  0  0
    2.5337   -3.3990   -0.9846 C   0  0  0  0  0  4           0  0  0
    2.4088   -2.9408   -2.4381 C   0  0  0  0  0  4           0  0  0
    3.1624   -3.8361   -3.4101 C   0  0  0  0  0  4           0  0  0
  1 10  1  0     0  0
  2 29  2  0     0  0
  3 30  2  0     0  0
  4 31  2  0     0  0
  5 30  1  0     0  0
  5 32  1  0     0  0
  6 29  1  0     0  0
  7 11  1  0     0  0
  7 12  1  0     0  0
  7 33  1  0     0  0
  8 10  1  0     0  0
  8 11  2  0     0  0
  9 13  1  0     0  0
  9 31  1  0     0  0
 10 12  2  0     0  0
 11 34  1  0     0  0
 12 35  1  0     0  0
 13 19  2  0     0  0
 13 20  1  0     0  0
 14 15  1  0     0  0
 14 16  2  0     0  0
 14 21  1  0     0  0
 15 22  2  0     0  0
 15 23  1  0     0  0
 16 17  1  0     0  0
 16 29  1  0     0  0
 17 24  2  0     0  0
 17 31  1  0     0  0
 18 25  2  0     0  0
 18 26  1  0     0  0
 18 33  1  0     0  0
 19 25  1  0     0  0
 20 26  2  0     0  0
 21 27  2  0     0  0
 22 24  1  0     0  0
 23 28  2  0     0  0
 27 28  1  0     0  0
 30 35  1  0     0  0
 34 36  1  0     0  0
 36 37  1  0     0  0
 37 38  1  0     0  0
M  END
> <standard_type>
pIC50

> <# Confs.>
25

> <canonical_smiles>
CCCCC1=NC(Cl)=C(CC(OC)=O)N1CC2=CC=C(NC(C3=CC=C(C=CC=C4)C4=C3C(O)=O)=O)C=C2

> <standard_relation>
=

> <Publication_ID>
nan

> <predicted_activity_value>
5.522878745280337

> <actual_activity_value>
5.236572006437063

> <Compound>
19

> <standard_units>
nM

> hash
9828163350660041123

$$$$
18
XXILIB    08252103513D 0   0.00000     0.00000

 38 41  0     1  0            999 V2000
    5.0019    1.4987   -0.0650 Cl  0  0  0  0  0  1           0  0  0
   -4.8629    2.0643    6.1128 O   0  0  0  0  0  2           0  0  0
    1.2816    2.2961   -2.4208 O   0  0  0  0  0  2           0  0  0
   -0.7871    1.6010    6.3205 O   0  0  0  0  0  2           0  0  0
    1.7888    4.3459   -1.4983 O   0  0  0  0  0  2           0  0  0
   -3.5549    3.5918    7.1600 O   0  0  0  0  0  2           0  0  0
    1.4522   -0.0000   -0.0000 N   0  0  0  0  0  3           0  0  0
    3.5396   -0.7595   -0.0143 N   0  0  0  0  0  3           0  0  0
   -2.1292    0.0062    5.3101 N   0  0  0  0  0  3           0  0  0
    3.5478    0.6103   -0.0330 C   0  0  0  0  0  4           0  0  0
    2.2701   -1.1133    0.0000 C   0  0  0  0  0  4           0  0  0
    2.2624    1.1179   -0.0275 C   0  0  0  0  0  4           0  0  0
   -1.5775    0.0288    4.0147 C   0  0  0  0  0  4           0  0  0
   -4.2579    1.1509    9.1864 C   0  0  0  0  0  4           0  0  0
   -3.7559    0.1729   10.0829 C   0  0  0  0  0  4           0  0  0
   -3.5692    1.3509    7.9642 C   0  0  0  0  0  4           0  0  0
   -2.4333    0.5942    7.6457 C   0  0  0  0  0  4           0  0  0
   -0.5411   -0.0000    1.3972 C   0  0  0  0  0  4           0  0  0
   -0.5138    0.8687    3.6693 C   0  0  0  0  0  4           0  0  0
   -2.1234   -0.8222    3.0487 C   0  0  0  0  0  4           0  0  0
   -5.4141    1.8703    9.5681 C   0  0  0  0  0  4           0  0  0
   -2.6083   -0.5652    9.7456 C   0  0  0  0  0  4           0  0  0
   -4.4089   -0.0535   11.3058 C   0  0  0  0  0  4           0  0  0
   -1.9478   -0.3592    8.5357 C   0  0  0  0  0  4           0  0  0
   -0.0021    0.8535    2.3689 C   0  0  0  0  0  4           0  0  0
   -1.6108   -0.8332    1.7489 C   0  0  0  0  0  4           0  0  0
   -6.0506    1.6303   10.7870 C   0  0  0  0  0  4           0  0  0
   -5.5480    0.6694   11.6549 C   0  0  0  0  0  4           0  0  0
   -4.0611    2.3478    6.9914 C   0  0  0  0  0  4           0  0  0
    1.5773    2.9971   -1.4622 C   0  0  0  0  0  4           0  0  0
   -1.7043    0.7845    6.3687 C   0  0  0  0  0  4           0  0  0
    1.6432    4.9565   -2.7842 C   0  0  0  0  0  4           0  0  0
    0.0000    0.0000   -0.0000 C   0  0  0  0  0  4           0  0  0
    1.7876   -2.5193    0.0145 C   0  0  0  0  0  4           0  0  0
    1.7697    2.5177   -0.0456 C   0  0  0  0  0  4           0  0  0
    1.5858   -3.0778   -1.3913 C   0  0  0  0  0  4           0  0  0
    1.0893   -4.5237   -1.4256 C   0  0  0  0  0  4           0  0  0
    0.8976   -5.0526   -2.8390 C   0  0  0  0  0  4           0  0  0
  1 10  1  0     0  0
  2 29  2  0     0  0
  3 30  2  0     0  0
  4 31  2  0     0  0
  5 30  1  0     0  0
  5 32  1  0     0  0
  6 29  1  0     0  0
  7 11  1  0     0  0
  7 12  1  0     0  0
  7 33  1  0     0  0
  8 10  1  0     0  0
  8 11  2  0     0  0
  9 13  1  0     0  0
  9 31  1  0     0  0
 10 12  2  0     0  0
 11 34  1  0     0  0
 12 35  1  0     0  0
 13 19  2  0     0  0
 13 20  1  0     0  0
 14 15  1  0     0  0
 14 16  2  0     0  0
 14 21  1  0     0  0
 15 22  2  0     0  0
 15 23  1  0     0  0
 16 17  1  0     0  0
 16 29  1  0     0  0
 17 24  2  0     0  0
 17 31  1  0     0  0
 18 25  2  0     0  0
 18 26  1  0     0  0
 18 33  1  0     0  0
 19 25  1  0     0  0
 20 26  2  0     0  0
 21 27  2  0     0  0
 22 24  1  0     0  0
 23 28  2  0     0  0
 27 28  1  0     0  0
 30 35  1  0     0  0
 34 36  1  0     0  0
 36 37  1  0     0  0
 37 38  1  0     0  0
M  END
> <standard_type>
pIC50

> <# Confs.>
25

> <canonical_smiles>
CCCCC1=NC(Cl)=C(CC(OC)=O)N1CC2=CC=C(NC(C3=CC=C(C=CC=C4)C4=C3C(O)=O)=O)C=C2

> <standard_relation>
=

> <Publication_ID>
nan

> <predicted_activity_value>
5.522878745280337

> <actual_activity_value>
5.236572006437063

> <Compound>
19

> <standard_units>
nM

> hash
9828163350660041123

$$$$
18
XXILIB    08252103513D 0   0.00000     0.00000

 38 41  0     1  0            999 V2000
    5.0019    1.4987   -0.0650 Cl  0  0  0  0  0  1           0  0  0
    0.2785    0.1430    8.6023 O   0  0  0  0  0  2           0  0  0
    1.2816    2.2961   -2.4208 O   0  0  0  0  0  2           0  0  0
   -2.1965   -2.2271    5.7747 O   0  0  0  0  0  2           0  0  0
    1.7888    4.3459   -1.4983 O   0  0  0  0  0  2           0  0  0
   -0.1159   -1.9756    7.8972 O   0  0  0  0  0  2           0  0  0
    1.4522   -0.0000   -0.0000 N   0  0  0  0  0  3           0  0  0
    3.5396   -0.7595   -0.0143 N   0  0  0  0  0  3           0  0  0
   -2.0170    0.0436    5.3535 N   0  0  0  0  0  3           0  0  0
    3.5478    0.6103   -0.0330 C   0  0  0  0  0  4           0  0  0
    2.2701   -1.1133    0.0000 C   0  0  0  0  0  4           0  0  0
    2.2624    1.1179   -0.0275 C   0  0  0  0  0  4           0  0  0
   -1.5247   -0.0054    4.0352 C   0  0  0  0  0  4           0  0  0
   -2.4594   -0.3520    9.8829 C   0  0  0  0  0  4           0  0  0
   -3.8628   -0.2204   10.0415 C   0  0  0  0  0  4           0  0  0
   -1.9584   -0.6354    8.5880 C   0  0  0  0  0  4           0  0  0
   -2.8247   -0.7680    7.4941 C   0  0  0  0  0  4           0  0  0
   -0.5411   -0.0000    1.3972 C   0  0  0  0  0  4           0  0  0
   -1.2877   -1.2124    3.3696 C   0  0  0  0  0  4           0  0  0
   -1.2661    1.2030    3.3807 C   0  0  0  0  0  4           0  0  0
   -1.6443   -0.1958   11.0281 C   0  0  0  0  0  4           0  0  0
   -4.7116   -0.3690    8.9310 C   0  0  0  0  0  4           0  0  0
   -4.3987    0.0580   11.3097 C   0  0  0  0  0  4           0  0  0
   -4.2002   -0.6413    7.6635 C   0  0  0  0  0  4           0  0  0
   -0.7980   -1.2070    2.0606 C   0  0  0  0  0  4           0  0  0
   -0.7744    1.2047    2.0728 C   0  0  0  0  0  4           0  0  0
   -2.1949    0.0823   12.2802 C   0  0  0  0  0  4           0  0  0
   -3.5709    0.2088   12.4206 C   0  0  0  0  0  4           0  0  0
   -0.5035   -0.7676    8.3691 C   0  0  0  0  0  4           0  0  0
    1.5773    2.9971   -1.4622 C   0  0  0  0  0  4           0  0  0
   -2.3183   -1.0571    6.1309 C   0  0  0  0  0  4           0  0  0
    1.6432    4.9565   -2.7842 C   0  0  0  0  0  4           0  0  0
    0.0000    0.0000    0.0000 C   0  0  0  0  0  4           0  0  0
    1.7876   -2.5193    0.0145 C   0  0  0  0  0  4           0  0  0
    1.7697    2.5177   -0.0456 C   0  0  0  0  0  4           0  0  0
    2.5337   -3.3990   -0.9846 C   0  0  0  0  0  4           0  0  0
    2.4088   -2.9408   -2.4381 C   0  0  0  0  0  4           0  0  0
    3.1624   -3.8361   -3.4101 C   0  0  0  0  0  4           0  0  0
  1 10  1  0     0  0
  2 29  2  0     0  0
  3 30  2  0     0  0
  4 31  2  0     0  0
  5 30  1  0     0  0
  5 32  1  0     0  0
  6 29  1  0     0  0
  7 11  1  0     0  0
  7 12  1  0     0  0
  7 33  1  0     0  0
  8 10  1  0     0  0
  8 11  2  0     0  0
  9 13  1  0     0  0
  9 31  1  0     0  0
 10 12  2  0     0  0
 11 34  1  0     0  0
 12 35  1  0     0  0
 13 19  2  0     0  0
 13 20  1  0     0  0
 14 15  1  0     0  0
 14 16  2  0     0  0
 14 21  1  0     0  0
 15 22  2  0     0  0
 15 23  1  0     0  0
 16 17  1  0     0  0
 16 29  1  0     0  0
 17 24  2  0     0  0
 17 31  1  0     0  0
 18 25  2  0     0  0
 18 26  1  0     0  0
 18 33  1  0     0  0
 19 25  1  0     0  0
 20 26  2  0     0  0
 21 27  2  0     0  0
 22 24  1  0     0  0
 23 28  2  0     0  0
 27 28  1  0     0  0
 30 35  1  0     0  0
 34 36  1  0     0  0
 36 37  1  0     0  0
 37 38  1  0     0  0
M  END
> <standard_type>
pIC50

> <# Confs.>
25

> <canonical_smiles>
CCCCC1=NC(Cl)=C(CC(OC)=O)N1CC2=CC=C(NC(C3=CC=C(C=CC=C4)C4=C3C(O)=O)=O)C=C2

> <standard_relation>
=

> <Publication_ID>
nan

> <predicted_activity_value>
5.522878745280337

> <actual_activity_value>
5.236572006437063

> <Compound>
19

> <standard_units>
nM

> hash
9828163350660041123

$$$$
18
XXILIB    08252103513D 0   0.00000     0.00000

 38 41  0     1  0            999 V2000
    5.0019    1.4987   -0.0650 Cl  0  0  0  0  0  1           0  0  0
   -5.9198    0.1309    6.3123 O   0  0  0  0  0  2           0  0  0
    1.2816    2.2961   -2.4208 O   0  0  0  0  0  2           0  0  0
   -2.1965   -2.2271    5.7747 O   0  0  0  0  0  2           0  0  0
    1.7888    4.3459   -1.4983 O   0  0  0  0  0  2           0  0  0
   -5.1077   -1.9657    6.0195 O   0  0  0  0  0  2           0  0  0
    1.4522   -0.0000   -0.0000 N   0  0  0  0  0  3           0  0  0
    3.5396   -0.7595   -0.0143 N   0  0  0  0  0  3           0  0  0
   -2.0170    0.0436    5.3535 N   0  0  0  0  0  3           0  0  0
    3.5478    0.6103   -0.0330 C   0  0  0  0  0  4           0  0  0
    2.2701   -1.1133    0.0000 C   0  0  0  0  0  4           0  0  0
    2.2624    1.1179   -0.0275 C   0  0  0  0  0  4           0  0  0
   -1.5247   -0.0054    4.0352 C   0  0  0  0  0  4           0  0  0
   -4.6606   -0.3446    9.0635 C   0  0  0  0  0  4           0  0  0
   -3.7019   -0.2224   10.1018 C   0  0  0  0  0  4           0  0  0
   -4.1936   -0.6138    7.7530 C   0  0  0  0  0  4           0  0  0
   -2.8247   -0.7680    7.4941 C   0  0  0  0  0  4           0  0  0
   -0.5411   -0.0000    1.3972 C   0  0  0  0  0  4           0  0  0
   -1.2877   -1.2124    3.3696 C   0  0  0  0  0  4           0  0  0
   -1.2661    1.2030    3.3807 C   0  0  0  0  0  4           0  0  0
   -6.0256   -0.1870    9.3984 C   0  0  0  0  0  4           0  0  0
   -2.3338   -0.3701    9.8147 C   0  0  0  0  0  4           0  0  0
   -4.1246    0.0465   11.4140 C   0  0  0  0  0  4           0  0  0
   -1.8935   -0.6412    8.5205 C   0  0  0  0  0  4           0  0  0
   -0.7980   -1.2070    2.0606 C   0  0  0  0  0  4           0  0  0
   -0.7744    1.2047    2.0728 C   0  0  0  0  0  4           0  0  0
   -6.4270    0.0784   10.7087 C   0  0  0  0  0  4           0  0  0
   -5.4771    0.1951   11.7153 C   0  0  0  0  0  4           0  0  0
   -5.1538   -0.7639    6.6406 C   0  0  0  0  0  4           0  0  0
    1.5773    2.9971   -1.4622 C   0  0  0  0  0  4           0  0  0
   -2.3183   -1.0571    6.1309 C   0  0  0  0  0  4           0  0  0
    1.6432    4.9565   -2.7842 C   0  0  0  0  0  4           0  0  0
    0.0000    0.0000    0.0000 C   0  0  0  0  0  4           0  0  0
    1.7876   -2.5193    0.0145 C   0  0  0  0  0  4           0  0  0
    1.7697    2.5177   -0.0456 C   0  0  0  0  0  4           0  0  0
    2.9343   -3.5262    0.0106 C   0  0  0  0  0  4           0  0  0
    2.4848   -4.9876    0.0252 C   0  0  0  0  0  4           0  0  0
    3.6487   -5.9673    0.0209 C   0  0  0  0  0  4           0  0  0
  1 10  1  0     0  0
  2 29  2  0     0  0
  3 30  2  0     0  0
  4 31  2  0     0  0
  5 30  1  0     0  0
  5 32  1  0     0  0
  6 29  1  0     0  0
  7 11  1  0     0  0
  7 12  1  0     0  0
  7 33  1  0     0  0
  8 10  1  0     0  0
  8 11  2  0     0  0
  9 13  1  0     0  0
  9 31  1  0     0  0
 10 12  2  0     0  0
 11 34  1  0     0  0
 12 35  1  0     0  0
 13 19  2  0     0  0
 13 20  1  0     0  0
 14 15  1  0     0  0
 14 16  2  0     0  0
 14 21  1  0     0  0
 15 22  2  0     0  0
 15 23  1  0     0  0
 16 17  1  0     0  0
 16 29  1  0     0  0
 17 24  2  0     0  0
 17 31  1  0     0  0
 18 25  2  0     0  0
 18 26  1  0     0  0
 18 33  1  0     0  0
 19 25  1  0     0  0
 20 26  2  0     0  0
 21 27  2  0     0  0
 22 24  1  0     0  0
 23 28  2  0     0  0
 27 28  1  0     0  0
 30 35  1  0     0  0
 34 36  1  0     0  0
 36 37  1  0     0  0
 37 38  1  0     0  0
M  END
> <standard_type>
pIC50

> <# Confs.>
25

> <canonical_smiles>
CCCCC1=NC(Cl)=C(CC(OC)=O)N1CC2=CC=C(NC(C3=CC=C(C=CC=C4)C4=C3C(O)=O)=O)C=C2

> <standard_relation>
=

> <Publication_ID>
nan

> <predicted_activity_value>
5.522878745280337

> <actual_activity_value>
5.236572006437063

> <Compound>
19

> <standard_units>
nM

> hash
9828163350660041123

$$$$
18
XXILIB    08252103513D 0   0.00000     0.00000

 38 41  0     1  0            999 V2000
    5.0019   -1.4987    0.0650 Cl  0  0  0  0  0  1           0  0  0
   -5.9198    0.1309    6.3123 O   0  0  0  0  0  2           0  0  0
    1.3331   -2.3760   -2.3456 O   0  0  0  0  0  2           0  0  0
   -2.1965   -2.2271    5.7747 O   0  0  0  0  0  2           0  0  0
    1.8185   -4.3938   -1.3440 O   0  0  0  0  0  2           0  0  0
   -5.1077   -1.9657    6.0195 O   0  0  0  0  0  2           0  0  0
    1.4522   -0.0000    0.0000 N   0  0  0  0  0  3           0  0  0
    3.5396    0.7595    0.0143 N   0  0  0  0  0  3           0  0  0
   -2.0170    0.0436    5.3535 N   0  0  0  0  0  3           0  0  0
    3.5478   -0.6103    0.0330 C   0  0  0  0  0  4           0  0  0
    2.2701    1.1133    0.0000 C   0  0  0  0  0  4           0  0  0
    2.2624   -1.1179    0.0275 C   0  0  0  0  0  4           0  0  0
   -1.5247   -0.0054    4.0352 C   0  0  0  0  0  4           0  0  0
   -4.6606   -0.3446    9.0635 C   0  0  0  0  0  4           0  0  0
   -3.7019   -0.2224   10.1018 C   0  0  0  0  0  4           0  0  0
   -4.1936   -0.6138    7.7530 C   0  0  0  0  0  4           0  0  0
   -2.8247   -0.7680    7.4941 C   0  0  0  0  0  4           0  0  0
   -0.5411   -0.0000    1.3972 C   0  0  0  0  0  4           0  0  0
   -1.2877   -1.2124    3.3696 C   0  0  0  0  0  4           0  0  0
   -1.2661    1.2030    3.3807 C   0  0  0  0  0  4           0  0  0
   -6.0256   -0.1870    9.3984 C   0  0  0  0  0  4           0  0  0
   -2.3338   -0.3701    9.8147 C   0  0  0  0  0  4           0  0  0
   -4.1246    0.0465   11.4140 C   0  0  0  0  0  4           0  0  0
   -1.8935   -0.6412    8.5205 C   0  0  0  0  0  4           0  0  0
   -0.7980   -1.2070    2.0606 C   0  0  0  0  0  4           0  0  0
   -0.7744    1.2047    2.0728 C   0  0  0  0  0  4           0  0  0
   -6.4270    0.0784   10.7087 C   0  0  0  0  0  4           0  0  0
   -5.4771    0.1951   11.7153 C   0  0  0  0  0  4           0  0  0
   -5.1538   -0.7639    6.6406 C   0  0  0  0  0  4           0  0  0
    1.6078   -3.0444   -1.3579 C   0  0  0  0  0  4           0  0  0
   -2.3183   -1.0571    6.1309 C   0  0  0  0  0  4           0  0  0
    1.6992   -5.0473   -2.6114 C   0  0  0  0  0  4           0  0  0
    0.0000    0.0000    0.0000 C   0  0  0  0  0  4           0  0  0
    1.7876    2.5193   -0.0145 C   0  0  0  0  0  4           0  0  0
    1.7697   -2.5177    0.0456 C   0  0  0  0  0  4           0  0  0
    2.5528    3.3849   -1.0114 C   0  0  0  0  0  4           0  0  0
    2.4557    2.9063   -2.4604 C   0  0  0  0  0  4           0  0  0
    3.2278    3.7881   -3.4304 C   0  0  0  0  0  4           0  0  0
  1 10  1  0     0  0
  2 29  2  0     0  0
  3 30  2  0     0  0
  4 31  2  0     0  0
  5 30  1  0     0  0
  5 32  1  0     0  0
  6 29  1  0     0  0
  7 11  1  0     0  0
  7 12  1  0     0  0
  7 33  1  0     0  0
  8 10  1  0     0  0
  8 11  2  0     0  0
  9 13  1  0     0  0
  9 31  1  0     0  0
 10 12  2  0     0  0
 11 34  1  0     0  0
 12 35  1  0     0  0
 13 19  2  0     0  0
 13 20  1  0     0  0
 14 15  1  0     0  0
 14 16  2  0     0  0
 14 21  1  0     0  0
 15 22  2  0     0  0
 15 23  1  0     0  0
 16 17  1  0     0  0
 16 29  1  0     0  0
 17 24  2  0     0  0
 17 31  1  0     0  0
 18 25  2  0     0  0
 18 26  1  0     0  0
 18 33  1  0     0  0
 19 25  1  0     0  0
 20 26  2  0     0  0
 21 27  2  0     0  0
 22 24  1  0     0  0
 23 28  2  0     0  0
 27 28  1  0     0  0
 30 35  1  0     0  0
 34 36  1  0     0  0
 36 37  1  0     0  0
 37 38  1  0     0  0
M  END
> <standard_type>
pIC50

> <# Confs.>
25

> <canonical_smiles>
CCCCC1=NC(Cl)=C(CC(OC)=O)N1CC2=CC=C(NC(C3=CC=C(C=CC=C4)C4=C3C(O)=O)=O)C=C2

> <standard_relation>
=

> <Publication_ID>
nan

> <predicted_activity_value>
5.522878745280337

> <actual_activity_value>
5.236572006437063

> <Compound>
19

> <standard_units>
nM

> hash
9828163350660041123

$$$$
18
XXILIB    08252103513D 0   0.00000     0.00000

 38 41  0     1  0            999 V2000
    5.0019    1.4987   -0.0650 Cl  0  0  0  0  0  1           0  0  0
   -0.6308    1.9882    7.8541 O   0  0  0  0  0  2           0  0  0
    1.2816    2.2961   -2.4208 O   0  0  0  0  0  2           0  0  0
   -3.7241    1.5485    5.1831 O   0  0  0  0  0  2           0  0  0
    1.7888    4.3459   -1.4983 O   0  0  0  0  0  2           0  0  0
   -2.3362    3.4740    7.6967 O   0  0  0  0  0  2           0  0  0
    1.4522   -0.0000   -0.0000 N   0  0  0  0  0  3           0  0  0
    3.5396   -0.7595   -0.0143 N   0  0  0  0  0  3           0  0  0
   -2.0717   -0.0680    5.3323 N   0  0  0  0  0  3           0  0  0
    3.5478    0.6103   -0.0330 C   0  0  0  0  0  4           0  0  0
    2.2701   -1.1133    0.0000 C   0  0  0  0  0  4           0  0  0
    2.2624    1.1179   -0.0275 C   0  0  0  0  0  4           0  0  0
   -1.5846   -0.0213    4.0120 C   0  0  0  0  0  4           0  0  0
   -3.1797    1.0024    9.6370 C   0  0  0  0  0  4           0  0  0
   -4.1605    0.0187    9.9241 C   0  0  0  0  0  4           0  0  0
   -2.8301    1.2194    8.2810 C   0  0  0  0  0  4           0  0  0
   -3.4461    0.4920    7.2535 C   0  0  0  0  0  4           0  0  0
   -0.5411    0.0000    1.3972 C   0  0  0  0  0  4           0  0  0
   -2.1127    0.8460    3.0501 C   0  0  0  0  0  4           0  0  0
   -0.5368   -0.8791    3.6631 C   0  0  0  0  0  4           0  0  0
   -2.6069    1.7055   10.7223 C   0  0  0  0  0  4           0  0  0
   -4.7557   -0.7056    8.8768 C   0  0  0  0  0  4           0  0  0
   -4.5327   -0.2277   11.2559 C   0  0  0  0  0  4           0  0  0
   -4.4037   -0.4738    7.5484 C   0  0  0  0  0  4           0  0  0
   -1.5939    0.8535    1.7524 C   0  0  0  0  0  4           0  0  0
   -0.0220   -0.8705    2.3641 C   0  0  0  0  0  4           0  0  0
   -2.9908    1.4480   12.0394 C   0  0  0  0  0  4           0  0  0
   -3.9527    0.4820   12.3056 C   0  0  0  0  0  4           0  0  0
   -1.8243    2.2429    7.9299 C   0  0  0  0  0  4           0  0  0
    1.5773    2.9971   -1.4622 C   0  0  0  0  0  4           0  0  0
   -3.0985    0.7106    5.8288 C   0  0  0  0  0  4           0  0  0
    1.6432    4.9565   -2.7842 C   0  0  0  0  0  4           0  0  0
    0.0000    0.0000   -0.0000 C   0  0  0  0  0  4           0  0  0
    1.7876   -2.5193    0.0145 C   0  0  0  0  0  4           0  0  0
    1.7697    2.5177   -0.0456 C   0  0  0  0  0  4           0  0  0
    2.5337   -3.3990   -0.9846 C   0  0  0  0  0  4           0  0  0
    2.4088   -2.9408   -2.4381 C   0  0  0  0  0  4           0  0  0
    3.1624   -3.8361   -3.4101 C   0  0  0  0  0  4           0  0  0
  1 10  1  0     0  0
  2 29  2  0     0  0
  3 30  2  0     0  0
  4 31  2  0     0  0
  5 30  1  0     0  0
  5 32  1  0     0  0
  6 29  1  0     0  0
  7 11  1  0     0  0
  7 12  1  0     0  0
  7 33  1  0     0  0
  8 10  1  0     0  0
  8 11  2  0     0  0
  9 13  1  0     0  0
  9 31  1  0     0  0
 10 12  2  0     0  0
 11 34  1  0     0  0
 12 35  1  0     0  0
 13 19  2  0     0  0
 13 20  1  0     0  0
 14 15  1  0     0  0
 14 16  2  0     0  0
 14 21  1  0     0  0
 15 22  2  0     0  0
 15 23  1  0     0  0
 16 17  1  0     0  0
 16 29  1  0     0  0
 17 24  2  0     0  0
 17 31  1  0     0  0
 18 25  2  0     0  0
 18 26  1  0     0  0
 18 33  1  0     0  0
 19 25  1  0     0  0
 20 26  2  0     0  0
 21 27  2  0     0  0
 22 24  1  0     0  0
 23 28  2  0     0  0
 27 28  1  0     0  0
 30 35  1  0     0  0
 34 36  1  0     0  0
 36 37  1  0     0  0
 37 38  1  0     0  0
M  END
> <standard_type>
pIC50

> <# Confs.>
25

> <canonical_smiles>
CCCCC1=NC(Cl)=C(CC(OC)=O)N1CC2=CC=C(NC(C3=CC=C(C=CC=C4)C4=C3C(O)=O)=O)C=C2

> <standard_relation>
=

> <Publication_ID>
nan

> <predicted_activity_value>
5.522878745280337

> <actual_activity_value>
5.236572006437063

> <Compound>
19

> <standard_units>
nM

> hash
9828163350660041123

$$$$
18
XXILIB    08252103513D 0   0.00000     0.00000

 38 41  0     1  0            999 V2000
    5.0019    1.4987   -0.0650 Cl  0  0  0  0  0  1           0  0  0
    0.2785    0.1430    8.6023 O   0  0  0  0  0  2           0  0  0
    1.2816    2.2961   -2.4208 O   0  0  0  0  0  2           0  0  0
   -2.1965   -2.2271    5.7747 O   0  0  0  0  0  2           0  0  0
    1.7888    4.3459   -1.4983 O   0  0  0  0  0  2           0  0  0
   -0.1159   -1.9756    7.8972 O   0  0  0  0  0  2           0  0  0
    1.4522   -0.0000   -0.0000 N   0  0  0  0  0  3           0  0  0
    3.5396   -0.7595   -0.0143 N   0  0  0  0  0  3           0  0  0
   -2.0170    0.0436    5.3535 N   0  0  0  0  0  3           0  0  0
    3.5478    0.6103   -0.0330 C   0  0  0  0  0  4           0  0  0
    2.2701   -1.1133    0.0000 C   0  0  0  0  0  4           0  0  0
    2.2624    1.1179   -0.0275 C   0  0  0  0  0  4           0  0  0
   -1.5247   -0.0054    4.0352 C   0  0  0  0  0  4           0  0  0
   -2.4594   -0.3520    9.8829 C   0  0  0  0  0  4           0  0  0
   -3.8628   -0.2204   10.0415 C   0  0  0  0  0  4           0  0  0
   -1.9584   -0.6354    8.5880 C   0  0  0  0  0  4           0  0  0
   -2.8247   -0.7680    7.4941 C   0  0  0  0  0  4           0  0  0
   -0.5411   -0.0000    1.3972 C   0  0  0  0  0  4           0  0  0
   -1.2877   -1.2124    3.3696 C   0  0  0  0  0  4           0  0  0
   -1.2661    1.2030    3.3807 C   0  0  0  0  0  4           0  0  0
   -1.6443   -0.1958   11.0281 C   0  0  0  0  0  4           0  0  0
   -4.7116   -0.3690    8.9310 C   0  0  0  0  0  4           0  0  0
   -4.3987    0.0580   11.3097 C   0  0  0  0  0  4           0  0  0
   -4.2002   -0.6413    7.6635 C   0  0  0  0  0  4           0  0  0
   -0.7980   -1.2070    2.0606 C   0  0  0  0  0  4           0  0  0
   -0.7744    1.2047    2.0728 C   0  0  0  0  0  4           0  0  0
   -2.1949    0.0823   12.2802 C   0  0  0  0  0  4           0  0  0
   -3.5709    0.2088   12.4206 C   0  0  0  0  0  4           0  0  0
   -0.5035   -0.7676    8.3691 C   0  0  0  0  0  4           0  0  0
    1.5773    2.9971   -1.4622 C   0  0  0  0  0  4           0  0  0
   -2.3183   -1.0571    6.1309 C   0  0  0  0  0  4           0  0  0
    1.6432    4.9565   -2.7842 C   0  0  0  0  0  4           0  0  0
    0.0000    0.0000    0.0000 C   0  0  0  0  0  4           0  0  0
    1.7876   -2.5193    0.0145 C   0  0  0  0  0  4           0  0  0
    1.7697    2.5177   -0.0456 C   0  0  0  0  0  4           0  0  0
    2.5337   -3.3990   -0.9846 C   0  0  0  0  0  4           0  0  0
    2.0703   -4.8560   -1.0047 C   0  0  0  0  0  4           0  0  0
    2.8315   -5.7077   -2.0094 C   0  0  0  0  0  4           0  0  0
  1 10  1  0     0  0
  2 29  2  0     0  0
  3 30  2  0     0  0
  4 31  2  0     0  0
  5 30  1  0     0  0
  5 32  1  0     0  0
  6 29  1  0     0  0
  7 11  1  0     0  0
  7 12  1  0     0  0
  7 33  1  0     0  0
  8 10  1  0     0  0
  8 11  2  0     0  0
  9 13  1  0     0  0
  9 31  1  0     0  0
 10 12  2  0     0  0
 11 34  1  0     0  0
 12 35  1  0     0  0
 13 19  2  0     0  0
 13 20  1  0     0  0
 14 15  1  0     0  0
 14 16  2  0     0  0
 14 21  1  0     0  0
 15 22  2  0     0  0
 15 23  1  0     0  0
 16 17  1  0     0  0
 16 29  1  0     0  0
 17 24  2  0     0  0
 17 31  1  0     0  0
 18 25  2  0     0  0
 18 26  1  0     0  0
 18 33  1  0     0  0
 19 25  1  0     0  0
 20 26  2  0     0  0
 21 27  2  0     0  0
 22 24  1  0     0  0
 23 28  2  0     0  0
 27 28  1  0     0  0
 30 35  1  0     0  0
 34 36  1  0     0  0
 36 37  1  0     0  0
 37 38  1  0     0  0
M  END
> <standard_type>
pIC50

> <# Confs.>
25

> <canonical_smiles>
CCCCC1=NC(Cl)=C(CC(OC)=O)N1CC2=CC=C(NC(C3=CC=C(C=CC=C4)C4=C3C(O)=O)=O)C=C2

> <standard_relation>
=

> <Publication_ID>
nan

> <predicted_activity_value>
5.522878745280337

> <actual_activity_value>
5.236572006437063

> <Compound>
19

> <standard_units>
nM

> hash
9828163350660041123

$$$$
18
XXILIB    08252103513D 0   0.00000     0.00000

 38 41  0     1  0            999 V2000
    5.0019    1.4987   -0.0650 Cl  0  0  0  0  0  1           0  0  0
   -4.8629    2.0643    6.1128 O   0  0  0  0  0  2           0  0  0
    1.2816    2.2961   -2.4208 O   0  0  0  0  0  2           0  0  0
   -0.7871    1.6010    6.3205 O   0  0  0  0  0  2           0  0  0
    1.7888    4.3459   -1.4983 O   0  0  0  0  0  2           0  0  0
   -3.5549    3.5918    7.1600 O   0  0  0  0  0  2           0  0  0
    1.4522   -0.0000   -0.0000 N   0  0  0  0  0  3           0  0  0
    3.5396   -0.7595   -0.0143 N   0  0  0  0  0  3           0  0  0
   -2.1292    0.0062    5.3101 N   0  0  0  0  0  3           0  0  0
    3.5478    0.6103   -0.0330 C   0  0  0  0  0  4           0  0  0
    2.2701   -1.1133    0.0000 C   0  0  0  0  0  4           0  0  0
    2.2624    1.1179   -0.0275 C   0  0  0  0  0  4           0  0  0
   -1.5775    0.0288    4.0147 C   0  0  0  0  0  4           0  0  0
   -4.2579    1.1509    9.1864 C   0  0  0  0  0  4           0  0  0
   -3.7559    0.1729   10.0829 C   0  0  0  0  0  4           0  0  0
   -3.5692    1.3509    7.9642 C   0  0  0  0  0  4           0  0  0
   -2.4333    0.5942    7.6457 C   0  0  0  0  0  4           0  0  0
   -0.5411   -0.0000    1.3972 C   0  0  0  0  0  4           0  0  0
   -0.5138    0.8687    3.6693 C   0  0  0  0  0  4           0  0  0
   -2.1234   -0.8222    3.0487 C   0  0  0  0  0  4           0  0  0
   -5.4141    1.8703    9.5681 C   0  0  0  0  0  4           0  0  0
   -2.6083   -0.5652    9.7456 C   0  0  0  0  0  4           0  0  0
   -4.4089   -0.0535   11.3058 C   0  0  0  0  0  4           0  0  0
   -1.9478   -0.3592    8.5357 C   0  0  0  0  0  4           0  0  0
   -0.0021    0.8535    2.3689 C   0  0  0  0  0  4           0  0  0
   -1.6108   -0.8332    1.7489 C   0  0  0  0  0  4           0  0  0
   -6.0506    1.6303   10.7870 C   0  0  0  0  0  4           0  0  0
   -5.5480    0.6694   11.6549 C   0  0  0  0  0  4           0  0  0
   -4.0611    2.3478    6.9914 C   0  0  0  0  0  4           0  0  0
    1.5773    2.9971   -1.4622 C   0  0  0  0  0  4           0  0  0
   -1.7043    0.7845    6.3687 C   0  0  0  0  0  4           0  0  0
    1.6432    4.9565   -2.7842 C   0  0  0  0  0  4           0  0  0
    0.0000    0.0000   -0.0000 C   0  0  0  0  0  4           0  0  0
    1.7876   -2.5193    0.0145 C   0  0  0  0  0  4           0  0  0
    1.7697    2.5177   -0.0456 C   0  0  0  0  0  4           0  0  0
    1.6128   -3.0580    1.4316 C   0  0  0  0  0  4           0  0  0
    1.1172   -4.5031    1.4957 C   0  0  0  0  0  4           0  0  0
    0.9527   -5.0122    2.9198 C   0  0  0  0  0  4           0  0  0
  1 10  1  0     0  0
  2 29  2  0     0  0
  3 30  2  0     0  0
  4 31  2  0     0  0
  5 30  1  0     0  0
  5 32  1  0     0  0
  6 29  1  0     0  0
  7 11  1  0     0  0
  7 12  1  0     0  0
  7 33  1  0     0  0
  8 10  1  0     0  0
  8 11  2  0     0  0
  9 13  1  0     0  0
  9 31  1  0     0  0
 10 12  2  0     0  0
 11 34  1  0     0  0
 12 35  1  0     0  0
 13 19  2  0     0  0
 13 20  1  0     0  0
 14 15  1  0     0  0
 14 16  2  0     0  0
 14 21  1  0     0  0
 15 22  2  0     0  0
 15 23  1  0     0  0
 16 17  1  0     0  0
 16 29  1  0     0  0
 17 24  2  0     0  0
 17 31  1  0     0  0
 18 25  2  0     0  0
 18 26  1  0     0  0
 18 33  1  0     0  0
 19 25  1  0     0  0
 20 26  2  0     0  0
 21 27  2  0     0  0
 22 24  1  0     0  0
 23 28  2  0     0  0
 27 28  1  0     0  0
 30 35  1  0     0  0
 34 36  1  0     0  0
 36 37  1  0     0  0
 37 38  1  0     0  0
M  END
> <standard_type>
pIC50

> <# Confs.>
25

> <canonical_smiles>
CCCCC1=NC(Cl)=C(CC(OC)=O)N1CC2=CC=C(NC(C3=CC=C(C=CC=C4)C4=C3C(O)=O)=O)C=C2

> <standard_relation>
=

> <Publication_ID>
nan

> <predicted_activity_value>
5.522878745280337

> <actual_activity_value>
5.236572006437063

> <Compound>
19

> <standard_units>
nM

> hash
9828163350660041123

$$$$
18
XXILIB    08252103513D 0   0.00000     0.00000

 38 41  0     1  0            999 V2000
    5.0019    1.4987   -0.0650 Cl  0  0  0  0  0  1           0  0  0
   -5.8824   -1.2579    6.0632 O   0  0  0  0  0  2           0  0  0
    1.2816    2.2961   -2.4208 O   0  0  0  0  0  2           0  0  0
   -3.7241    1.5485    5.1831 O   0  0  0  0  0  2           0  0  0
    1.7888    4.3459   -1.4983 O   0  0  0  0  0  2           0  0  0
   -6.5139    0.9061    6.3065 O   0  0  0  0  0  2           0  0  0
    1.4522   -0.0000   -0.0000 N   0  0  0  0  0  3           0  0  0
    3.5396   -0.7595   -0.0143 N   0  0  0  0  0  3           0  0  0
   -2.0717   -0.0680    5.3323 N   0  0  0  0  0  3           0  0  0
    3.5478    0.6103   -0.0330 C   0  0  0  0  0  4           0  0  0
    2.2701   -1.1133    0.0000 C   0  0  0  0  0  4           0  0  0
    2.2624    1.1179   -0.0275 C   0  0  0  0  0  4           0  0  0
   -1.5846   -0.0213    4.0120 C   0  0  0  0  0  4           0  0  0
   -5.0397   -0.1347    9.0086 C   0  0  0  0  0  4           0  0  0
   -4.0236    0.1007    9.9701 C   0  0  0  0  0  4           0  0  0
   -4.7268    0.0762    7.6427 C   0  0  0  0  0  4           0  0  0
   -3.4461    0.4920    7.2535 C   0  0  0  0  0  4           0  0  0
   -0.5411    0.0000    1.3972 C   0  0  0  0  0  4           0  0  0
   -2.1127    0.8460    3.0501 C   0  0  0  0  0  4           0  0  0
   -0.5368   -0.8791    3.6631 C   0  0  0  0  0  4           0  0  0
   -6.3057   -0.5626    9.4717 C   0  0  0  0  0  4           0  0  0
   -2.7505    0.5282    9.5554 C   0  0  0  0  0  4           0  0  0
   -4.2950   -0.0946   11.3343 C   0  0  0  0  0  4           0  0  0
   -2.4591    0.7241    8.2067 C   0  0  0  0  0  4           0  0  0
   -1.5939    0.8535    1.7524 C   0  0  0  0  0  4           0  0  0
   -0.0220   -0.8705    2.3641 C   0  0  0  0  0  4           0  0  0
   -6.5563   -0.7529   10.8317 C   0  0  0  0  0  4           0  0  0
   -5.5518   -0.5188   11.7619 C   0  0  0  0  0  4           0  0  0
   -5.7468   -0.1690    6.6027 C   0  0  0  0  0  4           0  0  0
    1.5773    2.9971   -1.4622 C   0  0  0  0  0  4           0  0  0
   -3.0985    0.7106    5.8288 C   0  0  0  0  0  4           0  0  0
    1.6432    4.9565   -2.7842 C   0  0  0  0  0  4           0  0  0
    0.0000    0.0000   -0.0000 C   0  0  0  0  0  4           0  0  0
    1.7876   -2.5193    0.0145 C   0  0  0  0  0  4           0  0  0
    1.7697    2.5177   -0.0456 C   0  0  0  0  0  4           0  0  0
    2.5337   -3.3990   -0.9846 C   0  0  0  0  0  4           0  0  0
    2.0703   -4.8560   -1.0047 C   0  0  0  0  0  4           0  0  0
    2.8315   -5.7077   -2.0094 C   0  0  0  0  0  4           0  0  0
  1 10  1  0     0  0
  2 29  2  0     0  0
  3 30  2  0     0  0
  4 31  2  0     0  0
  5 30  1  0     0  0
  5 32  1  0     0  0
  6 29  1  0     0  0
  7 11  1  0     0  0
  7 12  1  0     0  0
  7 33  1  0     0  0
  8 10  1  0     0  0
  8 11  2  0     0  0
  9 13  1  0     0  0
  9 31  1  0     0  0
 10 12  2  0     0  0
 11 34  1  0     0  0
 12 35  1  0     0  0
 13 19  2  0     0  0
 13 20  1  0     0  0
 14 15  1  0     0  0
 14 16  2  0     0  0
 14 21  1  0     0  0
 15 22  2  0     0  0
 15 23  1  0     0  0
 16 17  1  0     0  0
 16 29  1  0     0  0
 17 24  2  0     0  0
 17 31  1  0     0  0
 18 25  2  0     0  0
 18 26  1  0     0  0
 18 33  1  0     0  0
 19 25  1  0     0  0
 20 26  2  0     0  0
 21 27  2  0     0  0
 22 24  1  0     0  0
 23 28  2  0     0  0
 27 28  1  0     0  0
 30 35  1  0     0  0
 34 36  1  0     0  0
 36 37  1  0     0  0
 37 38  1  0     0  0
M  END
> <standard_type>
pIC50

> <# Confs.>
25

> <canonical_smiles>
CCCCC1=NC(Cl)=C(CC(OC)=O)N1CC2=CC=C(NC(C3=CC=C(C=CC=C4)C4=C3C(O)=O)=O)C=C2

> <standard_relation>
=

> <Publication_ID>
nan

> <predicted_activity_value>
5.522878745280337

> <actual_activity_value>
5.236572006437063

> <Compound>
19

> <standard_units>
nM

> hash
9828163350660041123

$$$$
18
XXILIB    08252103513D 0   0.00000     0.00000

 38 41  0     1  0            999 V2000
    5.0019    1.4987   -0.0650 Cl  0  0  0  0  0  1           0  0  0
   -4.6177   -2.3272    6.2078 O   0  0  0  0  0  2           0  0  0
    1.2816    2.2961   -2.4208 O   0  0  0  0  0  2           0  0  0
   -3.7241    1.5485    5.1831 O   0  0  0  0  0  2           0  0  0
    1.7888    4.3459   -1.4983 O   0  0  0  0  0  2           0  0  0
   -6.2242   -0.7293    6.1263 O   0  0  0  0  0  2           0  0  0
    1.4522   -0.0000   -0.0000 N   0  0  0  0  0  3           0  0  0
    3.5396   -0.7595   -0.0143 N   0  0  0  0  0  3           0  0  0
   -2.0717   -0.0680    5.3323 N   0  0  0  0  0  3           0  0  0
    3.5478    0.6103   -0.0330 C   0  0  0  0  0  4           0  0  0
    2.2701   -1.1133    0.0000 C   0  0  0  0  0  4           0  0  0
    2.2624    1.1179   -0.0275 C   0  0  0  0  0  4           0  0  0
   -1.5846   -0.0213    4.0120 C   0  0  0  0  0  4           0  0  0
   -4.7221   -0.6531    9.0066 C   0  0  0  0  0  4           0  0  0
   -4.0465    0.1388    9.9704 C   0  0  0  0  0  4           0  0  0
   -4.4072   -0.4523    7.6396 C   0  0  0  0  0  4           0  0  0
   -3.4461    0.4920    7.2535 C   0  0  0  0  0  4           0  0  0
   -0.5411    0.0000    1.3972 C   0  0  0  0  0  4           0  0  0
   -2.1127    0.8460    3.0501 C   0  0  0  0  0  4           0  0  0
   -0.5368   -0.8791    3.6631 C   0  0  0  0  0  4           0  0  0
   -5.6723   -1.5934    9.4681 C   0  0  0  0  0  4           0  0  0
   -3.0950    1.0871    9.5571 C   0  0  0  0  0  4           0  0  0
   -4.3324   -0.0285   11.3354 C   0  0  0  0  0  4           0  0  0
   -2.7935    1.2661    8.2082 C   0  0  0  0  0  4           0  0  0
   -1.5939    0.8535    1.7524 C   0  0  0  0  0  4           0  0  0
   -0.0220   -0.8705    2.3641 C   0  0  0  0  0  4           0  0  0
   -5.9420   -1.7468   10.8291 C   0  0  0  0  0  4           0  0  0
   -5.2726   -0.9647   11.7616 C   0  0  0  0  0  4           0  0  0
   -5.0734   -1.2623    6.5993 C   0  0  0  0  0  4           0  0  0
    1.5773    2.9971   -1.4622 C   0  0  0  0  0  4           0  0  0
   -3.0985    0.7106    5.8288 C   0  0  0  0  0  4           0  0  0
    1.6432    4.9565   -2.7842 C   0  0  0  0  0  4           0  0  0
    0.0000    0.0000   -0.0000 C   0  0  0  0  0  4           0  0  0
    1.7876   -2.5193    0.0145 C   0  0  0  0  0  4           0  0  0
    1.7697    2.5177   -0.0456 C   0  0  0  0  0  4           0  0  0
    2.5528   -3.3849    1.0114 C   0  0  0  0  0  4           0  0  0
    2.0900   -4.8415    1.0609 C   0  0  0  0  0  4           0  0  0
    2.8704   -5.6791    2.0627 C   0  0  0  0  0  4           0  0  0
  1 10  1  0     0  0
  2 29  2  0     0  0
  3 30  2  0     0  0
  4 31  2  0     0  0
  5 30  1  0     0  0
  5 32  1  0     0  0
  6 29  1  0     0  0
  7 11  1  0     0  0
  7 12  1  0     0  0
  7 33  1  0     0  0
  8 10  1  0     0  0
  8 11  2  0     0  0
  9 13  1  0     0  0
  9 31  1  0     0  0
 10 12  2  0     0  0
 11 34  1  0     0  0
 12 35  1  0     0  0
 13 19  2  0     0  0
 13 20  1  0     0  0
 14 15  1  0     0  0
 14 16  2  0     0  0
 14 21  1  0     0  0
 15 22  2  0     0  0
 15 23  1  0     0  0
 16 17  1  0     0  0
 16 29  1  0     0  0
 17 24  2  0     0  0
 17 31  1  0     0  0
 18 25  2  0     0  0
 18 26  1  0     0  0
 18 33  1  0     0  0
 19 25  1  0     0  0
 20 26  2  0     0  0
 21 27  2  0     0  0
 22 24  1  0     0  0
 23 28  2  0     0  0
 27 28  1  0     0  0
 30 35  1  0     0  0
 34 36  1  0     0  0
 36 37  1  0     0  0
 37 38  1  0     0  0
M  END
> <standard_type>
pIC50

> <# Confs.>
25

> <canonical_smiles>
CCCCC1=NC(Cl)=C(CC(OC)=O)N1CC2=CC=C(NC(C3=CC=C(C=CC=C4)C4=C3C(O)=O)=O)C=C2

> <standard_relation>
=

> <Publication_ID>
nan

> <predicted_activity_value>
5.522878745280337

> <actual_activity_value>
5.236572006437063

> <Compound>
19

> <standard_units>
nM

> hash
9828163350660041123

$$$$
18
XXILIB    08252103513D 0   0.00000     0.00000

 38 41  0     1  0            999 V2000
    5.0019    1.4987   -0.0650 Cl  0  0  0  0  0  1           0  0  0
   -1.7616    3.2168    7.7667 O   0  0  0  0  0  2           0  0  0
    1.2816    2.2961   -2.4208 O   0  0  0  0  0  2           0  0  0
   -3.7241    1.5485    5.1831 O   0  0  0  0  0  2           0  0  0
    1.7888    4.3459   -1.4983 O   0  0  0  0  0  2           0  0  0
   -3.9417    3.6651    7.3343 O   0  0  0  0  0  2           0  0  0
    1.4522   -0.0000   -0.0000 N   0  0  0  0  0  3           0  0  0
    3.5396   -0.7595   -0.0143 N   0  0  0  0  0  3           0  0  0
   -2.0717   -0.0680    5.3323 N   0  0  0  0  0  3           0  0  0
    3.5478    0.6103   -0.0330 C   0  0  0  0  0  4           0  0  0
    2.2701   -1.1133    0.0000 C   0  0  0  0  0  4           0  0  0
    2.2624    1.1179   -0.0275 C   0  0  0  0  0  4           0  0  0
   -1.5846   -0.0213    4.0120 C   0  0  0  0  0  4           0  0  0
   -3.7039    1.2990    9.5546 C   0  0  0  0  0  4           0  0  0
   -4.1223   -0.0034    9.9301 C   0  0  0  0  0  4           0  0  0
   -3.3609    1.5239    8.1982 C   0  0  0  0  0  4           0  0  0
   -3.4461    0.4920    7.2535 C   0  0  0  0  0  4           0  0  0
   -0.5411    0.0000    1.3972 C   0  0  0  0  0  4           0  0  0
   -2.1127    0.8460    3.0501 C   0  0  0  0  0  4           0  0  0
   -0.5368   -0.8791    3.6631 C   0  0  0  0  0  4           0  0  0
   -3.6510    2.2944   10.5579 C   0  0  0  0  0  4           0  0  0
   -4.1887   -1.0243    8.9663 C   0  0  0  0  0  4           0  0  0
   -4.4685   -0.2672   11.2655 C   0  0  0  0  0  4           0  0  0
   -3.8536   -0.7827    7.6352 C   0  0  0  0  0  4           0  0  0
   -1.5939    0.8535    1.7524 C   0  0  0  0  0  4           0  0  0
   -0.0220   -0.8705    2.3641 C   0  0  0  0  0  4           0  0  0
   -4.0005    2.0138   11.8798 C   0  0  0  0  0  4           0  0  0
   -4.4087    0.7341   12.2330 C   0  0  0  0  0  4           0  0  0
   -2.9330    2.8666    7.7551 C   0  0  0  0  0  4           0  0  0
    1.5773    2.9971   -1.4622 C   0  0  0  0  0  4           0  0  0
   -3.0985    0.7106    5.8288 C   0  0  0  0  0  4           0  0  0
    1.6432    4.9565   -2.7842 C   0  0  0  0  0  4           0  0  0
    0.0000    0.0000   -0.0000 C   0  0  0  0  0  4           0  0  0
    1.7876   -2.5193    0.0145 C   0  0  0  0  0  4           0  0  0
    1.7697    2.5177   -0.0456 C   0  0  0  0  0  4           0  0  0
    2.5337   -3.3990   -0.9846 C   0  0  0  0  0  4           0  0  0
    2.0703   -4.8560   -1.0047 C   0  0  0  0  0  4           0  0  0
    2.8315   -5.7077   -2.0094 C   0  0  0  0  0  4           0  0  0
  1 10  1  0     0  0
  2 29  2  0     0  0
  3 30  2  0     0  0
  4 31  2  0     0  0
  5 30  1  0     0  0
  5 32  1  0     0  0
  6 29  1  0     0  0
  7 11  1  0     0  0
  7 12  1  0     0  0
  7 33  1  0     0  0
  8 10  1  0     0  0
  8 11  2  0     0  0
  9 13  1  0     0  0
  9 31  1  0     0  0
 10 12  2  0     0  0
 11 34  1  0     0  0
 12 35  1  0     0  0
 13 19  2  0     0  0
 13 20  1  0     0  0
 14 15  1  0     0  0
 14 16  2  0     0  0
 14 21  1  0     0  0
 15 22  2  0     0  0
 15 23  1  0     0  0
 16 17  1  0     0  0
 16 29  1  0     0  0
 17 24  2  0     0  0
 17 31  1  0     0  0
 18 25  2  0     0  0
 18 26  1  0     0  0
 18 33  1  0     0  0
 19 25  1  0     0  0
 20 26  2  0     0  0
 21 27  2  0     0  0
 22 24  1  0     0  0
 23 28  2  0     0  0
 27 28  1  0     0  0
 30 35  1  0     0  0
 34 36  1  0     0  0
 36 37  1  0     0  0
 37 38  1  0     0  0
M  END
> <standard_type>
pIC50

> <# Confs.>
25

> <canonical_smiles>
CCCCC1=NC(Cl)=C(CC(OC)=O)N1CC2=CC=C(NC(C3=CC=C(C=CC=C4)C4=C3C(O)=O)=O)C=C2

> <standard_relation>
=

> <Publication_ID>
nan

> <predicted_activity_value>
5.522878745280337

> <actual_activity_value>
5.236572006437063

> <Compound>
19

> <standard_units>
nM

> hash
9828163350660041123

$$$$
18
XXILIB    08252103513D 0   0.00000     0.00000

 38 41  0     1  0            999 V2000
    5.0019    1.4987   -0.0650 Cl  0  0  0  0  0  1           0  0  0
   -0.8732   -2.2481    7.7603 O   0  0  0  0  0  2           0  0  0
    1.2816    2.2961   -2.4208 O   0  0  0  0  0  2           0  0  0
   -0.7871    1.6010    6.3205 O   0  0  0  0  0  2           0  0  0
    1.7888    4.3459   -1.4983 O   0  0  0  0  0  2           0  0  0
    0.3429   -0.6009    8.7343 O   0  0  0  0  0  2           0  0  0
    1.4522   -0.0000   -0.0000 N   0  0  0  0  0  3           0  0  0
    3.5396   -0.7595   -0.0143 N   0  0  0  0  0  3           0  0  0
   -2.1292    0.0062    5.3101 N   0  0  0  0  0  3           0  0  0
    3.5478    0.6103   -0.0330 C   0  0  0  0  0  4           0  0  0
    2.2701   -1.1133    0.0000 C   0  0  0  0  0  4           0  0  0
    2.2624    1.1179   -0.0275 C   0  0  0  0  0  4           0  0  0
   -1.5775    0.0288    4.0147 C   0  0  0  0  0  4           0  0  0
   -2.7252   -0.5151    9.8130 C   0  0  0  0  0  4           0  0  0
   -3.8672    0.2958   10.0377 C   0  0  0  0  0  4           0  0  0
   -2.0206   -0.3514    8.5945 C   0  0  0  0  0  4           0  0  0
   -2.4333    0.5942    7.6457 C   0  0  0  0  0  4           0  0  0
   -0.5411   -0.0000    1.3972 C   0  0  0  0  0  4           0  0  0
   -0.5138    0.8687    3.6693 C   0  0  0  0  0  4           0  0  0
   -2.1234   -0.8222    3.0487 C   0  0  0  0  0  4           0  0  0
   -2.3604   -1.4411   10.8178 C   0  0  0  0  0  4           0  0  0
   -4.2675    1.2291    9.0658 C   0  0  0  0  0  4           0  0  0
   -4.5940    0.1620   11.2322 C   0  0  0  0  0  4           0  0  0
   -3.5581    1.3806    7.8758 C   0  0  0  0  0  4           0  0  0
   -0.0021    0.8535    2.3689 C   0  0  0  0  0  4           0  0  0
   -1.6108   -0.8332    1.7489 C   0  0  0  0  0  4           0  0  0
   -3.0942   -1.5588   11.9994 C   0  0  0  0  0  4           0  0  0
   -4.2100   -0.7580   12.2060 C   0  0  0  0  0  4           0  0  0
   -0.8169   -1.1625    8.3201 C   0  0  0  0  0  4           0  0  0
    1.5773    2.9971   -1.4622 C   0  0  0  0  0  4           0  0  0
   -1.7043    0.7845    6.3687 C   0  0  0  0  0  4           0  0  0
    1.6432    4.9565   -2.7842 C   0  0  0  0  0  4           0  0  0
    0.0000    0.0000   -0.0000 C   0  0  0  0  0  4           0  0  0
    1.7876   -2.5193    0.0145 C   0  0  0  0  0  4           0  0  0
    1.7697    2.5177   -0.0456 C   0  0  0  0  0  4           0  0  0
    1.5858   -3.0778   -1.3913 C   0  0  0  0  0  4           0  0  0
    1.0893   -4.5237   -1.4256 C   0  0  0  0  0  4           0  0  0
    0.8976   -5.0526   -2.8390 C   0  0  0  0  0  4           0  0  0
  1 10  1  0     0  0
  2 29  2  0     0  0
  3 30  2  0     0  0
  4 31  2  0     0  0
  5 30  1  0     0  0
  5 32  1  0     0  0
  6 29  1  0     0  0
  7 11  1  0     0  0
  7 12  1  0     0  0
  7 33  1  0     0  0
  8 10  1  0     0  0
  8 11  2  0     0  0
  9 13  1  0     0  0
  9 31  1  0     0  0
 10 12  2  0     0  0
 11 34  1  0     0  0
 12 35  1  0     0  0
 13 19  2  0     0  0
 13 20  1  0     0  0
 14 15  1  0     0  0
 14 16  2  0     0  0
 14 21  1  0     0  0
 15 22  2  0     0  0
 15 23  1  0     0  0
 16 17  1  0     0  0
 16 29  1  0     0  0
 17 24  2  0     0  0
 17 31  1  0     0  0
 18 25  2  0     0  0
 18 26  1  0     0  0
 18 33  1  0     0  0
 19 25  1  0     0  0
 20 26  2  0     0  0
 21 27  2  0     0  0
 22 24  1  0     0  0
 23 28  2  0     0  0
 27 28  1  0     0  0
 30 35  1  0     0  0
 34 36  1  0     0  0
 36 37  1  0     0  0
 37 38  1  0     0  0
M  END
> <standard_type>
pIC50

> <# Confs.>
25

> <canonical_smiles>
CCCCC1=NC(Cl)=C(CC(OC)=O)N1CC2=CC=C(NC(C3=CC=C(C=CC=C4)C4=C3C(O)=O)=O)C=C2

> <standard_relation>
=

> <Publication_ID>
nan

> <predicted_activity_value>
5.522878745280337

> <actual_activity_value>
5.236572006437063

> <Compound>
19

> <standard_units>
nM

> hash
9828163350660041123

$$$$
18
XXILIB    08252103513D 0   0.00000     0.00000

 38 41  0     1  0            999 V2000
    5.0019   -1.4987    0.0650 Cl  0  0  0  0  0  1           0  0  0
   -4.8629    2.0643    6.1128 O   0  0  0  0  0  2           0  0  0
    1.3331   -2.3760   -2.3456 O   0  0  0  0  0  2           0  0  0
   -0.7871    1.6010    6.3205 O   0  0  0  0  0  2           0  0  0
    1.8185   -4.3938   -1.3440 O   0  0  0  0  0  2           0  0  0
   -3.5549    3.5918    7.1600 O   0  0  0  0  0  2           0  0  0
    1.4522   -0.0000    0.0000 N   0  0  0  0  0  3           0  0  0
    3.5396    0.7595    0.0143 N   0  0  0  0  0  3           0  0  0
   -2.1292    0.0062    5.3101 N   0  0  0  0  0  3           0  0  0
    3.5478   -0.6103    0.0330 C   0  0  0  0  0  4           0  0  0
    2.2701    1.1133    0.0000 C   0  0  0  0  0  4           0  0  0
    2.2624   -1.1179    0.0275 C   0  0  0  0  0  4           0  0  0
   -1.5775    0.0288    4.0147 C   0  0  0  0  0  4           0  0  0
   -4.2579    1.1509    9.1864 C   0  0  0  0  0  4           0  0  0
   -3.7559    0.1729   10.0829 C   0  0  0  0  0  4           0  0  0
   -3.5692    1.3509    7.9642 C   0  0  0  0  0  4           0  0  0
   -2.4333    0.5942    7.6457 C   0  0  0  0  0  4           0  0  0
   -0.5411   -0.0000    1.3972 C   0  0  0  0  0  4           0  0  0
   -0.5138    0.8687    3.6693 C   0  0  0  0  0  4           0  0  0
   -2.1234   -0.8222    3.0487 C   0  0  0  0  0  4           0  0  0
   -5.4141    1.8703    9.5681 C   0  0  0  0  0  4           0  0  0
   -2.6083   -0.5652    9.7456 C   0  0  0  0  0  4           0  0  0
   -4.4089   -0.0535   11.3058 C   0  0  0  0  0  4           0  0  0
   -1.9478   -0.3592    8.5357 C   0  0  0  0  0  4           0  0  0
   -0.0021    0.8535    2.3689 C   0  0  0  0  0  4           0  0  0
   -1.6108   -0.8332    1.7489 C   0  0  0  0  0  4           0  0  0
   -6.0506    1.6303   10.7870 C   0  0  0  0  0  4           0  0  0
   -5.5480    0.6694   11.6549 C   0  0  0  0  0  4           0  0  0
   -4.0611    2.3478    6.9914 C   0  0  0  0  0  4           0  0  0
    1.6078   -3.0444   -1.3579 C   0  0  0  0  0  4           0  0  0
   -1.7043    0.7845    6.3687 C   0  0  0  0  0  4           0  0  0
    1.6992   -5.0473   -2.6114 C   0  0  0  0  0  4           0  0  0
    0.0000    0.0000   -0.0000 C   0  0  0  0  0  4           0  0  0
    1.7876    2.5193   -0.0145 C   0  0  0  0  0  4           0  0  0
    1.7697   -2.5177    0.0456 C   0  0  0  0  0  4           0  0  0
    2.5528    3.3849   -1.0114 C   0  0  0  0  0  4           0  0  0
    2.4557    2.9063   -2.4604 C   0  0  0  0  0  4           0  0  0
    3.2278    3.7881   -3.4304 C   0  0  0  0  0  4           0  0  0
  1 10  1  0     0  0
  2 29  2  0     0  0
  3 30  2  0     0  0
  4 31  2  0     0  0
  5 30  1  0     0  0
  5 32  1  0     0  0
  6 29  1  0     0  0
  7 11  1  0     0  0
  7 12  1  0     0  0
  7 33  1  0     0  0
  8 10  1  0     0  0
  8 11  2  0     0  0
  9 13  1  0     0  0
  9 31  1  0     0  0
 10 12  2  0     0  0
 11 34  1  0     0  0
 12 35  1  0     0  0
 13 19  2  0     0  0
 13 20  1  0     0  0
 14 15  1  0     0  0
 14 16  2  0     0  0
 14 21  1  0     0  0
 15 22  2  0     0  0
 15 23  1  0     0  0
 16 17  1  0     0  0
 16 29  1  0     0  0
 17 24  2  0     0  0
 17 31  1  0     0  0
 18 25  2  0     0  0
 18 26  1  0     0  0
 18 33  1  0     0  0
 19 25  1  0     0  0
 20 26  2  0     0  0
 21 27  2  0     0  0
 22 24  1  0     0  0
 23 28  2  0     0  0
 27 28  1  0     0  0
 30 35  1  0     0  0
 34 36  1  0     0  0
 36 37  1  0     0  0
 37 38  1  0     0  0
M  END
> <standard_type>
pIC50

> <# Confs.>
25

> <canonical_smiles>
CCCCC1=NC(Cl)=C(CC(OC)=O)N1CC2=CC=C(NC(C3=CC=C(C=CC=C4)C4=C3C(O)=O)=O)C=C2

> <standard_relation>
=

> <Publication_ID>
nan

> <predicted_activity_value>
5.522878745280337

> <actual_activity_value>
5.236572006437063

> <Compound>
19

> <standard_units>
nM

> hash
9828163350660041123

$$$$
18
XXILIB    08252103513D 0   0.00000     0.00000

 38 41  0     1  0            999 V2000
    5.0019   -1.4987    0.0650 Cl  0  0  0  0  0  1           0  0  0
   -4.8629    2.0643    6.1128 O   0  0  0  0  0  2           0  0  0
    1.3331   -2.3760   -2.3456 O   0  0  0  0  0  2           0  0  0
   -0.7871    1.6010    6.3205 O   0  0  0  0  0  2           0  0  0
    1.8185   -4.3938   -1.3440 O   0  0  0  0  0  2           0  0  0
   -3.5549    3.5918    7.1600 O   0  0  0  0  0  2           0  0  0
    1.4522   -0.0000    0.0000 N   0  0  0  0  0  3           0  0  0
    3.5396    0.7595    0.0143 N   0  0  0  0  0  3           0  0  0
   -2.1292    0.0062    5.3101 N   0  0  0  0  0  3           0  0  0
    3.5478   -0.6103    0.0330 C   0  0  0  0  0  4           0  0  0
    2.2701    1.1133    0.0000 C   0  0  0  0  0  4           0  0  0
    2.2624   -1.1179    0.0275 C   0  0  0  0  0  4           0  0  0
   -1.5775    0.0288    4.0147 C   0  0  0  0  0  4           0  0  0
   -4.2579    1.1509    9.1864 C   0  0  0  0  0  4           0  0  0
   -3.7559    0.1729   10.0829 C   0  0  0  0  0  4           0  0  0
   -3.5692    1.3509    7.9642 C   0  0  0  0  0  4           0  0  0
   -2.4333    0.5942    7.6457 C   0  0  0  0  0  4           0  0  0
   -0.5411   -0.0000    1.3972 C   0  0  0  0  0  4           0  0  0
   -0.5138    0.8687    3.6693 C   0  0  0  0  0  4           0  0  0
   -2.1234   -0.8222    3.0487 C   0  0  0  0  0  4           0  0  0
   -5.4141    1.8703    9.5681 C   0  0  0  0  0  4           0  0  0
   -2.6083   -0.5652    9.7456 C   0  0  0  0  0  4           0  0  0
   -4.4089   -0.0535   11.3058 C   0  0  0  0  0  4           0  0  0
   -1.9478   -0.3592    8.5357 C   0  0  0  0  0  4           0  0  0
   -0.0021    0.8535    2.3689 C   0  0  0  0  0  4           0  0  0
   -1.6108   -0.8332    1.7489 C   0  0  0  0  0  4           0  0  0
   -6.0506    1.6303   10.7870 C   0  0  0  0  0  4           0  0  0
   -5.5480    0.6694   11.6549 C   0  0  0  0  0  4           0  0  0
   -4.0611    2.3478    6.9914 C   0  0  0  0  0  4           0  0  0
    1.6078   -3.0444   -1.3579 C   0  0  0  0  0  4           0  0  0
   -1.7043    0.7845    6.3687 C   0  0  0  0  0  4           0  0  0
    1.6992   -5.0473   -2.6114 C   0  0  0  0  0  4           0  0  0
    0.0000    0.0000   -0.0000 C   0  0  0  0  0  4           0  0  0
    1.7876    2.5193   -0.0145 C   0  0  0  0  0  4           0  0  0
    1.7697   -2.5177    0.0456 C   0  0  0  0  0  4           0  0  0
    2.5337    3.3990    0.9846 C   0  0  0  0  0  4           0  0  0
    2.0703    4.8560    1.0047 C   0  0  0  0  0  4           0  0  0
    2.8315    5.7077    2.0094 C   0  0  0  0  0  4           0  0  0
  1 10  1  0     0  0
  2 29  2  0     0  0
  3 30  2  0     0  0
  4 31  2  0     0  0
  5 30  1  0     0  0
  5 32  1  0     0  0
  6 29  1  0     0  0
  7 11  1  0     0  0
  7 12  1  0     0  0
  7 33  1  0     0  0
  8 10  1  0     0  0
  8 11  2  0     0  0
  9 13  1  0     0  0
  9 31  1  0     0  0
 10 12  2  0     0  0
 11 34  1  0     0  0
 12 35  1  0     0  0
 13 19  2  0     0  0
 13 20  1  0     0  0
 14 15  1  0     0  0
 14 16  2  0     0  0
 14 21  1  0     0  0
 15 22  2  0     0  0
 15 23  1  0     0  0
 16 17  1  0     0  0
 16 29  1  0     0  0
 17 24  2  0     0  0
 17 31  1  0     0  0
 18 25  2  0     0  0
 18 26  1  0     0  0
 18 33  1  0     0  0
 19 25  1  0     0  0
 20 26  2  0     0  0
 21 27  2  0     0  0
 22 24  1  0     0  0
 23 28  2  0     0  0
 27 28  1  0     0  0
 30 35  1  0     0  0
 34 36  1  0     0  0
 36 37  1  0     0  0
 37 38  1  0     0  0
M  END
> <standard_type>
pIC50

> <# Confs.>
25

> <canonical_smiles>
CCCCC1=NC(Cl)=C(CC(OC)=O)N1CC2=CC=C(NC(C3=CC=C(C=CC=C4)C4=C3C(O)=O)=O)C=C2

> <standard_relation>
=

> <Publication_ID>
nan

> <predicted_activity_value>
5.522878745280337

> <actual_activity_value>
5.236572006437063

> <Compound>
19

> <standard_units>
nM

> hash
9828163350660041123

$$$$
18
XXILIB    08252103513D 0   0.00000     0.00000

 38 41  0     1  0            999 V2000
    5.0019   -1.4987    0.0650 Cl  0  0  0  0  0  1           0  0  0
   -4.8629    2.0643    6.1128 O   0  0  0  0  0  2           0  0  0
    1.3331   -2.3760   -2.3456 O   0  0  0  0  0  2           0  0  0
   -0.7871    1.6010    6.3205 O   0  0  0  0  0  2           0  0  0
    1.8185   -4.3938   -1.3440 O   0  0  0  0  0  2           0  0  0
   -3.5549    3.5918    7.1600 O   0  0  0  0  0  2           0  0  0
    1.4522   -0.0000    0.0000 N   0  0  0  0  0  3           0  0  0
    3.5396    0.7595    0.0143 N   0  0  0  0  0  3           0  0  0
   -2.1292    0.0062    5.3101 N   0  0  0  0  0  3           0  0  0
    3.5478   -0.6103    0.0330 C   0  0  0  0  0  4           0  0  0
    2.2701    1.1133    0.0000 C   0  0  0  0  0  4           0  0  0
    2.2624   -1.1179    0.0275 C   0  0  0  0  0  4           0  0  0
   -1.5775    0.0288    4.0147 C   0  0  0  0  0  4           0  0  0
   -4.2579    1.1509    9.1864 C   0  0  0  0  0  4           0  0  0
   -3.7559    0.1729   10.0829 C   0  0  0  0  0  4           0  0  0
   -3.5692    1.3509    7.9642 C   0  0  0  0  0  4           0  0  0
   -2.4333    0.5942    7.6457 C   0  0  0  0  0  4           0  0  0
   -0.5411   -0.0000    1.3972 C   0  0  0  0  0  4           0  0  0
   -0.5138    0.8687    3.6693 C   0  0  0  0  0  4           0  0  0
   -2.1234   -0.8222    3.0487 C   0  0  0  0  0  4           0  0  0
   -5.4141    1.8703    9.5681 C   0  0  0  0  0  4           0  0  0
   -2.6083   -0.5652    9.7456 C   0  0  0  0  0  4           0  0  0
   -4.4089   -0.0535   11.3058 C   0  0  0  0  0  4           0  0  0
   -1.9478   -0.3592    8.5357 C   0  0  0  0  0  4           0  0  0
   -0.0021    0.8535    2.3689 C   0  0  0  0  0  4           0  0  0
   -1.6108   -0.8332    1.7489 C   0  0  0  0  0  4           0  0  0
   -6.0506    1.6303   10.7870 C   0  0  0  0  0  4           0  0  0
   -5.5480    0.6694   11.6549 C   0  0  0  0  0  4           0  0  0
   -4.0611    2.3478    6.9914 C   0  0  0  0  0  4           0  0  0
    1.6078   -3.0444   -1.3579 C   0  0  0  0  0  4           0  0  0
   -1.7043    0.7845    6.3687 C   0  0  0  0  0  4           0  0  0
    1.6992   -5.0473   -2.6114 C   0  0  0  0  0  4           0  0  0
    0.0000    0.0000   -0.0000 C   0  0  0  0  0  4           0  0  0
    1.7876    2.5193   -0.0145 C   0  0  0  0  0  4           0  0  0
    1.7697   -2.5177    0.0456 C   0  0  0  0  0  4           0  0  0
    2.5528    3.3849   -1.0114 C   0  0  0  0  0  4           0  0  0
    2.0900    4.8415   -1.0609 C   0  0  0  0  0  4           0  0  0
    2.8704    5.6791   -2.0627 C   0  0  0  0  0  4           0  0  0
  1 10  1  0     0  0
  2 29  2  0     0  0
  3 30  2  0     0  0
  4 31  2  0     0  0
  5 30  1  0     0  0
  5 32  1  0     0  0
  6 29  1  0     0  0
  7 11  1  0     0  0
  7 12  1  0     0  0
  7 33  1  0     0  0
  8 10  1  0     0  0
  8 11  2  0     0  0
  9 13  1  0     0  0
  9 31  1  0     0  0
 10 12  2  0     0  0
 11 34  1  0     0  0
 12 35  1  0     0  0
 13 19  2  0     0  0
 13 20  1  0     0  0
 14 15  1  0     0  0
 14 16  2  0     0  0
 14 21  1  0     0  0
 15 22  2  0     0  0
 15 23  1  0     0  0
 16 17  1  0     0  0
 16 29  1  0     0  0
 17 24  2  0     0  0
 17 31  1  0     0  0
 18 25  2  0     0  0
 18 26  1  0     0  0
 18 33  1  0     0  0
 19 25  1  0     0  0
 20 26  2  0     0  0
 21 27  2  0     0  0
 22 24  1  0     0  0
 23 28  2  0     0  0
 27 28  1  0     0  0
 30 35  1  0     0  0
 34 36  1  0     0  0
 36 37  1  0     0  0
 37 38  1  0     0  0
M  END
> <standard_type>
pIC50

> <# Confs.>
25

> <canonical_smiles>
CCCCC1=NC(Cl)=C(CC(OC)=O)N1CC2=CC=C(NC(C3=CC=C(C=CC=C4)C4=C3C(O)=O)=O)C=C2

> <standard_relation>
=

> <Publication_ID>
nan

> <predicted_activity_value>
5.522878745280337

> <actual_activity_value>
5.236572006437063

> <Compound>
19

> <standard_units>
nM

> hash
9828163350660041123

$$$$
18
XXILIB    08252103513D 0   0.00000     0.00000

 38 41  0     1  0            999 V2000
    5.0019    1.4987   -0.0650 Cl  0  0  0  0  0  1           0  0  0
   -4.8629    2.0643    6.1128 O   0  0  0  0  0  2           0  0  0
    1.2816    2.2961   -2.4208 O   0  0  0  0  0  2           0  0  0
   -0.7871    1.6010    6.3205 O   0  0  0  0  0  2           0  0  0
    1.7888    4.3459   -1.4983 O   0  0  0  0  0  2           0  0  0
   -3.5549    3.5918    7.1600 O   0  0  0  0  0  2           0  0  0
    1.4522   -0.0000   -0.0000 N   0  0  0  0  0  3           0  0  0
    3.5396   -0.7595   -0.0143 N   0  0  0  0  0  3           0  0  0
   -2.1292    0.0062    5.3101 N   0  0  0  0  0  3           0  0  0
    3.5478    0.6103   -0.0330 C   0  0  0  0  0  4           0  0  0
    2.2701   -1.1133    0.0000 C   0  0  0  0  0  4           0  0  0
    2.2624    1.1179   -0.0275 C   0  0  0  0  0  4           0  0  0
   -1.5775    0.0288    4.0147 C   0  0  0  0  0  4           0  0  0
   -4.2579    1.1509    9.1864 C   0  0  0  0  0  4           0  0  0
   -3.7559    0.1729   10.0829 C   0  0  0  0  0  4           0  0  0
   -3.5692    1.3509    7.9642 C   0  0  0  0  0  4           0  0  0
   -2.4333    0.5942    7.6457 C   0  0  0  0  0  4           0  0  0
   -0.5411   -0.0000    1.3972 C   0  0  0  0  0  4           0  0  0
   -0.5138    0.8687    3.6693 C   0  0  0  0  0  4           0  0  0
   -2.1234   -0.8222    3.0487 C   0  0  0  0  0  4           0  0  0
   -5.4141    1.8703    9.5681 C   0  0  0  0  0  4           0  0  0
   -2.6083   -0.5652    9.7456 C   0  0  0  0  0  4           0  0  0
   -4.4089   -0.0535   11.3058 C   0  0  0  0  0  4           0  0  0
   -1.9478   -0.3592    8.5357 C   0  0  0  0  0  4           0  0  0
   -0.0021    0.8535    2.3689 C   0  0  0  0  0  4           0  0  0
   -1.6108   -0.8332    1.7489 C   0  0  0  0  0  4           0  0  0
   -6.0506    1.6303   10.7870 C   0  0  0  0  0  4           0  0  0
   -5.5480    0.6694   11.6549 C   0  0  0  0  0  4           0  0  0
   -4.0611    2.3478    6.9914 C   0  0  0  0  0  4           0  0  0
    1.5773    2.9971   -1.4622 C   0  0  0  0  0  4           0  0  0
   -1.7043    0.7845    6.3687 C   0  0  0  0  0  4           0  0  0
    1.6432    4.9565   -2.7842 C   0  0  0  0  0  4           0  0  0
    0.0000    0.0000   -0.0000 C   0  0  0  0  0  4           0  0  0
    1.7876   -2.5193    0.0145 C   0  0  0  0  0  4           0  0  0
    1.7697    2.5177   -0.0456 C   0  0  0  0  0  4           0  0  0
    2.9343   -3.5262    0.0106 C   0  0  0  0  0  4           0  0  0
    2.4848   -4.9876    0.0252 C   0  0  0  0  0  4           0  0  0
    3.6487   -5.9673    0.0209 C   0  0  0  0  0  4           0  0  0
  1 10  1  0     0  0
  2 29  2  0     0  0
  3 30  2  0     0  0
  4 31  2  0     0  0
  5 30  1  0     0  0
  5 32  1  0     0  0
  6 29  1  0     0  0
  7 11  1  0     0  0
  7 12  1  0     0  0
  7 33  1  0     0  0
  8 10  1  0     0  0
  8 11  2  0     0  0
  9 13  1  0     0  0
  9 31  1  0     0  0
 10 12  2  0     0  0
 11 34  1  0     0  0
 12 35  1  0     0  0
 13 19  2  0     0  0
 13 20  1  0     0  0
 14 15  1  0     0  0
 14 16  2  0     0  0
 14 21  1  0     0  0
 15 22  2  0     0  0
 15 23  1  0     0  0
 16 17  1  0     0  0
 16 29  1  0     0  0
 17 24  2  0     0  0
 17 31  1  0     0  0
 18 25  2  0     0  0
 18 26  1  0     0  0
 18 33  1  0     0  0
 19 25  1  0     0  0
 20 26  2  0     0  0
 21 27  2  0     0  0
 22 24  1  0     0  0
 23 28  2  0     0  0
 27 28  1  0     0  0
 30 35  1  0     0  0
 34 36  1  0     0  0
 36 37  1  0     0  0
 37 38  1  0     0  0
M  END
> <standard_type>
pIC50

> <# Confs.>
25

> <canonical_smiles>
CCCCC1=NC(Cl)=C(CC(OC)=O)N1CC2=CC=C(NC(C3=CC=C(C=CC=C4)C4=C3C(O)=O)=O)C=C2

> <standard_relation>
=

> <Publication_ID>
nan

> <predicted_activity_value>
5.522878745280337

> <actual_activity_value>
5.236572006437063

> <Compound>
19

> <standard_units>
nM

> hash
9828163350660041123

$$$$
18
XXILIB    08252103513D 0   0.00000     0.00000

 38 41  0     1  0            999 V2000
    5.0019    1.4987   -0.0650 Cl  0  0  0  0  0  1           0  0  0
   -3.9820    3.2959    6.7992 O   0  0  0  0  0  2           0  0  0
    1.2816    2.2961   -2.4208 O   0  0  0  0  0  2           0  0  0
   -0.7871    1.6010    6.3205 O   0  0  0  0  0  2           0  0  0
    1.7888    4.3459   -1.4983 O   0  0  0  0  0  2           0  0  0
   -2.1283    3.7969    8.0049 O   0  0  0  0  0  2           0  0  0
    1.4522   -0.0000   -0.0000 N   0  0  0  0  0  3           0  0  0
    3.5396   -0.7595   -0.0143 N   0  0  0  0  0  3           0  0  0
   -2.1292    0.0062    5.3101 N   0  0  0  0  0  3           0  0  0
    3.5478    0.6103   -0.0330 C   0  0  0  0  0  4           0  0  0
    2.2701   -1.1133    0.0000 C   0  0  0  0  0  4           0  0  0
    2.2624    1.1179   -0.0275 C   0  0  0  0  0  4           0  0  0
   -1.5775    0.0288    4.0147 C   0  0  0  0  0  4           0  0  0
   -3.8166    1.4463    9.4823 C   0  0  0  0  0  4           0  0  0
   -3.7884    0.1516   10.0612 C   0  0  0  0  0  4           0  0  0
   -3.1192    1.6478    8.2653 C   0  0  0  0  0  4           0  0  0
   -2.4333    0.5942    7.6457 C   0  0  0  0  0  4           0  0  0
   -0.5411   -0.0000    1.3972 C   0  0  0  0  0  4           0  0  0
   -0.5138    0.8687    3.6693 C   0  0  0  0  0  4           0  0  0
   -2.1234   -0.8222    3.0487 C   0  0  0  0  0  4           0  0  0
   -4.5366    2.4596   10.1568 C   0  0  0  0  0  4           0  0  0
   -3.0840   -0.8859    9.4263 C   0  0  0  0  0  4           0  0  0
   -4.4653   -0.0880   11.2684 C   0  0  0  0  0  4           0  0  0
   -2.4092   -0.6705    8.2260 C   0  0  0  0  0  4           0  0  0
   -0.0021    0.8535    2.3689 C   0  0  0  0  0  4           0  0  0
   -1.6108   -0.8332    1.7489 C   0  0  0  0  0  4           0  0  0
   -5.2047    2.2023   11.3551 C   0  0  0  0  0  4           0  0  0
   -5.1687    0.9296   11.9102 C   0  0  0  0  0  4           0  0  0
   -3.1306    2.9746    7.6159 C   0  0  0  0  0  4           0  0  0
    1.5773    2.9971   -1.4622 C   0  0  0  0  0  4           0  0  0
   -1.7043    0.7845    6.3687 C   0  0  0  0  0  4           0  0  0
    1.6432    4.9565   -2.7842 C   0  0  0  0  0  4           0  0  0
    0.0000    0.0000   -0.0000 C   0  0  0  0  0  4           0  0  0
    1.7876   -2.5193    0.0145 C   0  0  0  0  0  4           0  0  0
    1.7697    2.5177   -0.0456 C   0  0  0  0  0  4           0  0  0
    1.5858   -3.0778   -1.3913 C   0  0  0  0  0  4           0  0  0
    2.8524   -3.0910   -2.2478 C   0  0  0  0  0  4           0  0  0
    2.6206   -3.6526   -3.6426 C   0  0  0  0  0  4           0  0  0
  1 10  1  0     0  0
  2 29  2  0     0  0
  3 30  2  0     0  0
  4 31  2  0     0  0
  5 30  1  0     0  0
  5 32  1  0     0  0
  6 29  1  0     0  0
  7 11  1  0     0  0
  7 12  1  0     0  0
  7 33  1  0     0  0
  8 10  1  0     0  0
  8 11  2  0     0  0
  9 13  1  0     0  0
  9 31  1  0     0  0
 10 12  2  0     0  0
 11 34  1  0     0  0
 12 35  1  0     0  0
 13 19  2  0     0  0
 13 20  1  0     0  0
 14 15  1  0     0  0
 14 16  2  0     0  0
 14 21  1  0     0  0
 15 22  2  0     0  0
 15 23  1  0     0  0
 16 17  1  0     0  0
 16 29  1  0     0  0
 17 24  2  0     0  0
 17 31  1  0     0  0
 18 25  2  0     0  0
 18 26  1  0     0  0
 18 33  1  0     0  0
 19 25  1  0     0  0
 20 26  2  0     0  0
 21 27  2  0     0  0
 22 24  1  0     0  0
 23 28  2  0     0  0
 27 28  1  0     0  0
 30 35  1  0     0  0
 34 36  1  0     0  0
 36 37  1  0     0  0
 37 38  1  0     0  0
M  END
> <standard_type>
pIC50

> <# Confs.>
25

> <canonical_smiles>
CCCCC1=NC(Cl)=C(CC(OC)=O)N1CC2=CC=C(NC(C3=CC=C(C=CC=C4)C4=C3C(O)=O)=O)C=C2

> <standard_relation>
=

> <Publication_ID>
nan

> <predicted_activity_value>
5.522878745280337

> <actual_activity_value>
5.236572006437063

> <Compound>
19

> <standard_units>
nM

> hash
9828163350660041123

$$$$
18
XXILIB    08252103513D 0   0.00000     0.00000

 38 41  0     1  0            999 V2000
    5.0019    1.4987   -0.0650 Cl  0  0  0  0  0  1           0  0  0
   -5.8824   -1.2579    6.0632 O   0  0  0  0  0  2           0  0  0
    1.7906    2.3427   -2.4741 O   0  0  0  0  0  2           0  0  0
   -3.7241    1.5485    5.1831 O   0  0  0  0  0  2           0  0  0
    1.1252    4.2855   -1.4287 O   0  0  0  0  0  2           0  0  0
   -6.5139    0.9061    6.3065 O   0  0  0  0  0  2           0  0  0
    1.4522   -0.0000   -0.0000 N   0  0  0  0  0  3           0  0  0
    3.5396   -0.7595   -0.0143 N   0  0  0  0  0  3           0  0  0
   -2.0717   -0.0680    5.3323 N   0  0  0  0  0  3           0  0  0
    3.5478    0.6103   -0.0330 C   0  0  0  0  0  4           0  0  0
    2.2701   -1.1133    0.0000 C   0  0  0  0  0  4           0  0  0
    2.2624    1.1179   -0.0275 C   0  0  0  0  0  4           0  0  0
   -1.5846   -0.0213    4.0120 C   0  0  0  0  0  4           0  0  0
   -5.0397   -0.1347    9.0086 C   0  0  0  0  0  4           0  0  0
   -4.0236    0.1007    9.9701 C   0  0  0  0  0  4           0  0  0
   -4.7268    0.0762    7.6427 C   0  0  0  0  0  4           0  0  0
   -3.4461    0.4920    7.2535 C   0  0  0  0  0  4           0  0  0
   -0.5411    0.0000    1.3972 C   0  0  0  0  0  4           0  0  0
   -2.1127    0.8460    3.0501 C   0  0  0  0  0  4           0  0  0
   -0.5368   -0.8791    3.6631 C   0  0  0  0  0  4           0  0  0
   -6.3057   -0.5626    9.4717 C   0  0  0  0  0  4           0  0  0
   -2.7505    0.5282    9.5554 C   0  0  0  0  0  4           0  0  0
   -4.2950   -0.0946   11.3343 C   0  0  0  0  0  4           0  0  0
   -2.4591    0.7241    8.2067 C   0  0  0  0  0  4           0  0  0
   -1.5939    0.8535    1.7524 C   0  0  0  0  0  4           0  0  0
   -0.0220   -0.8705    2.3641 C   0  0  0  0  0  4           0  0  0
   -6.5563   -0.7529   10.8317 C   0  0  0  0  0  4           0  0  0
   -5.5518   -0.5188   11.7619 C   0  0  0  0  0  4           0  0  0
   -5.7468   -0.1690    6.6027 C   0  0  0  0  0  4           0  0  0
    1.5773    2.9971   -1.4622 C   0  0  0  0  0  4           0  0  0
   -3.0985    0.7106    5.8288 C   0  0  0  0  0  4           0  0  0
    0.8924    4.8884   -2.7053 C   0  0  0  0  0  4           0  0  0
    0.0000    0.0000   -0.0000 C   0  0  0  0  0  4           0  0  0
    1.7876   -2.5193    0.0145 C   0  0  0  0  0  4           0  0  0
    1.7697    2.5177   -0.0456 C   0  0  0  0  0  4           0  0  0
    2.5337   -3.3990   -0.9846 C   0  0  0  0  0  4           0  0  0
    2.4088   -2.9408   -2.4381 C   0  0  0  0  0  4           0  0  0
    3.1624   -3.8361   -3.4101 C   0  0  0  0  0  4           0  0  0
  1 10  1  0     0  0
  2 29  2  0     0  0
  3 30  2  0     0  0
  4 31  2  0     0  0
  5 30  1  0     0  0
  5 32  1  0     0  0
  6 29  1  0     0  0
  7 11  1  0     0  0
  7 12  1  0     0  0
  7 33  1  0     0  0
  8 10  1  0     0  0
  8 11  2  0     0  0
  9 13  1  0     0  0
  9 31  1  0     0  0
 10 12  2  0     0  0
 11 34  1  0     0  0
 12 35  1  0     0  0
 13 19  2  0     0  0
 13 20  1  0     0  0
 14 15  1  0     0  0
 14 16  2  0     0  0
 14 21  1  0     0  0
 15 22  2  0     0  0
 15 23  1  0     0  0
 16 17  1  0     0  0
 16 29  1  0     0  0
 17 24  2  0     0  0
 17 31  1  0     0  0
 18 25  2  0     0  0
 18 26  1  0     0  0
 18 33  1  0     0  0
 19 25  1  0     0  0
 20 26  2  0     0  0
 21 27  2  0     0  0
 22 24  1  0     0  0
 23 28  2  0     0  0
 27 28  1  0     0  0
 30 35  1  0     0  0
 34 36  1  0     0  0
 36 37  1  0     0  0
 37 38  1  0     0  0
M  END
> <standard_type>
pIC50

> <# Confs.>
25

> <canonical_smiles>
CCCCC1=NC(Cl)=C(CC(OC)=O)N1CC2=CC=C(NC(C3=CC=C(C=CC=C4)C4=C3C(O)=O)=O)C=C2

> <standard_relation>
=

> <Publication_ID>
nan

> <predicted_activity_value>
5.522878745280337

> <actual_activity_value>
5.236572006437063

> <Compound>
19

> <standard_units>
nM

> hash
9828163350660041123

$$$$
18
XXILIB    08252103513D 0   0.00000     0.00000

 38 41  0     1  0            999 V2000
    5.0019    1.4987   -0.0650 Cl  0  0  0  0  0  1           0  0  0
   -3.9820    3.2959    6.7992 O   0  0  0  0  0  2           0  0  0
    1.2816    2.2961   -2.4208 O   0  0  0  0  0  2           0  0  0
   -0.7871    1.6010    6.3205 O   0  0  0  0  0  2           0  0  0
    1.7888    4.3459   -1.4983 O   0  0  0  0  0  2           0  0  0
   -2.1283    3.7969    8.0049 O   0  0  0  0  0  2           0  0  0
    1.4522   -0.0000   -0.0000 N   0  0  0  0  0  3           0  0  0
    3.5396   -0.7595   -0.0143 N   0  0  0  0  0  3           0  0  0
   -2.1292    0.0062    5.3101 N   0  0  0  0  0  3           0  0  0
    3.5478    0.6103   -0.0330 C   0  0  0  0  0  4           0  0  0
    2.2701   -1.1133    0.0000 C   0  0  0  0  0  4           0  0  0
    2.2624    1.1179   -0.0275 C   0  0  0  0  0  4           0  0  0
   -1.5775    0.0288    4.0147 C   0  0  0  0  0  4           0  0  0
   -3.8166    1.4463    9.4823 C   0  0  0  0  0  4           0  0  0
   -3.7884    0.1516   10.0612 C   0  0  0  0  0  4           0  0  0
   -3.1192    1.6478    8.2653 C   0  0  0  0  0  4           0  0  0
   -2.4333    0.5942    7.6457 C   0  0  0  0  0  4           0  0  0
   -0.5411   -0.0000    1.3972 C   0  0  0  0  0  4           0  0  0
   -0.5138    0.8687    3.6693 C   0  0  0  0  0  4           0  0  0
   -2.1234   -0.8222    3.0487 C   0  0  0  0  0  4           0  0  0
   -4.5366    2.4596   10.1568 C   0  0  0  0  0  4           0  0  0
   -3.0840   -0.8859    9.4263 C   0  0  0  0  0  4           0  0  0
   -4.4653   -0.0880   11.2684 C   0  0  0  0  0  4           0  0  0
   -2.4092   -0.6705    8.2260 C   0  0  0  0  0  4           0  0  0
   -0.0021    0.8535    2.3689 C   0  0  0  0  0  4           0  0  0
   -1.6108   -0.8332    1.7489 C   0  0  0  0  0  4           0  0  0
   -5.2047    2.2023   11.3551 C   0  0  0  0  0  4           0  0  0
   -5.1687    0.9296   11.9102 C   0  0  0  0  0  4           0  0  0
   -3.1306    2.9746    7.6159 C   0  0  0  0  0  4           0  0  0
    1.5773    2.9971   -1.4622 C   0  0  0  0  0  4           0  0  0
   -1.7043    0.7845    6.3687 C   0  0  0  0  0  4           0  0  0
    1.6432    4.9565   -2.7842 C   0  0  0  0  0  4           0  0  0
    0.0000    0.0000   -0.0000 C   0  0  0  0  0  4           0  0  0
    1.7876   -2.5193    0.0145 C   0  0  0  0  0  4           0  0  0
    1.7697    2.5177   -0.0456 C   0  0  0  0  0  4           0  0  0
    1.6128   -3.0580    1.4316 C   0  0  0  0  0  4           0  0  0
    2.8955   -3.0593    2.2639 C   0  0  0  0  0  4           0  0  0
    2.6905   -3.6012    3.6705 C   0  0  0  0  0  4           0  0  0
  1 10  1  0     0  0
  2 29  2  0     0  0
  3 30  2  0     0  0
  4 31  2  0     0  0
  5 30  1  0     0  0
  5 32  1  0     0  0
  6 29  1  0     0  0
  7 11  1  0     0  0
  7 12  1  0     0  0
  7 33  1  0     0  0
  8 10  1  0     0  0
  8 11  2  0     0  0
  9 13  1  0     0  0
  9 31  1  0     0  0
 10 12  2  0     0  0
 11 34  1  0     0  0
 12 35  1  0     0  0
 13 19  2  0     0  0
 13 20  1  0     0  0
 14 15  1  0     0  0
 14 16  2  0     0  0
 14 21  1  0     0  0
 15 22  2  0     0  0
 15 23  1  0     0  0
 16 17  1  0     0  0
 16 29  1  0     0  0
 17 24  2  0     0  0
 17 31  1  0     0  0
 18 25  2  0     0  0
 18 26  1  0     0  0
 18 33  1  0     0  0
 19 25  1  0     0  0
 20 26  2  0     0  0
 21 27  2  0     0  0
 22 24  1  0     0  0
 23 28  2  0     0  0
 27 28  1  0     0  0
 30 35  1  0     0  0
 34 36  1  0     0  0
 36 37  1  0     0  0
 37 38  1  0     0  0
M  END
> <standard_type>
pIC50

> <# Confs.>
25

> <canonical_smiles>
CCCCC1=NC(Cl)=C(CC(OC)=O)N1CC2=CC=C(NC(C3=CC=C(C=CC=C4)C4=C3C(O)=O)=O)C=C2

> <standard_relation>
=

> <Publication_ID>
nan

> <predicted_activity_value>
5.522878745280337

> <actual_activity_value>
5.236572006437063

> <Compound>
19

> <standard_units>
nM

> hash
9828163350660041123

$$$$
18
XXILIB    08252103513D 0   0.00000     0.00000

 38 41  0     1  0            999 V2000
    5.0019   -1.4987    0.0650 Cl  0  0  0  0  0  1           0  0  0
   -5.9198    0.1309    6.3123 O   0  0  0  0  0  2           0  0  0
    1.8432   -2.4242   -2.3863 O   0  0  0  0  0  2           0  0  0
   -2.1965   -2.2271    5.7747 O   0  0  0  0  0  2           0  0  0
    1.1536   -4.3307   -1.2910 O   0  0  0  0  0  2           0  0  0
   -5.1077   -1.9657    6.0195 O   0  0  0  0  0  2           0  0  0
    1.4522   -0.0000    0.0000 N   0  0  0  0  0  3           0  0  0
    3.5396    0.7595    0.0143 N   0  0  0  0  0  3           0  0  0
   -2.0170    0.0436    5.3535 N   0  0  0  0  0  3           0  0  0
    3.5478   -0.6103    0.0330 C   0  0  0  0  0  4           0  0  0
    2.2701    1.1133    0.0000 C   0  0  0  0  0  4           0  0  0
    2.2624   -1.1179    0.0275 C   0  0  0  0  0  4           0  0  0
   -1.5247   -0.0054    4.0352 C   0  0  0  0  0  4           0  0  0
   -4.6606   -0.3446    9.0635 C   0  0  0  0  0  4           0  0  0
   -3.7019   -0.2224   10.1018 C   0  0  0  0  0  4           0  0  0
   -4.1936   -0.6138    7.7530 C   0  0  0  0  0  4           0  0  0
   -2.8247   -0.7680    7.4941 C   0  0  0  0  0  4           0  0  0
   -0.5411   -0.0000    1.3972 C   0  0  0  0  0  4           0  0  0
   -1.2877   -1.2124    3.3696 C   0  0  0  0  0  4           0  0  0
   -1.2661    1.2030    3.3807 C   0  0  0  0  0  4           0  0  0
   -6.0256   -0.1870    9.3984 C   0  0  0  0  0  4           0  0  0
   -2.3338   -0.3701    9.8147 C   0  0  0  0  0  4           0  0  0
   -4.1246    0.0465   11.4140 C   0  0  0  0  0  4           0  0  0
   -1.8935   -0.6412    8.5205 C   0  0  0  0  0  4           0  0  0
   -0.7980   -1.2070    2.0606 C   0  0  0  0  0  4           0  0  0
   -0.7744    1.2047    2.0728 C   0  0  0  0  0  4           0  0  0
   -6.4270    0.0784   10.7087 C   0  0  0  0  0  4           0  0  0
   -5.4771    0.1951   11.7153 C   0  0  0  0  0  4           0  0  0
   -5.1538   -0.7639    6.6406 C   0  0  0  0  0  4           0  0  0
    1.6078   -3.0444   -1.3579 C   0  0  0  0  0  4           0  0  0
   -2.3183   -1.0571    6.1309 C   0  0  0  0  0  4           0  0  0
    0.9470   -4.9757   -2.5515 C   0  0  0  0  0  4           0  0  0
    0.0000    0.0000    0.0000 C   0  0  0  0  0  4           0  0  0
    1.7876    2.5193   -0.0145 C   0  0  0  0  0  4           0  0  0
    1.7697   -2.5177    0.0456 C   0  0  0  0  0  4           0  0  0
    2.5528    3.3849   -1.0114 C   0  0  0  0  0  4           0  0  0
    2.0900    4.8415   -1.0609 C   0  0  0  0  0  4           0  0  0
    2.8704    5.6791   -2.0627 C   0  0  0  0  0  4           0  0  0
  1 10  1  0     0  0
  2 29  2  0     0  0
  3 30  2  0     0  0
  4 31  2  0     0  0
  5 30  1  0     0  0
  5 32  1  0     0  0
  6 29  1  0     0  0
  7 11  1  0     0  0
  7 12  1  0     0  0
  7 33  1  0     0  0
  8 10  1  0     0  0
  8 11  2  0     0  0
  9 13  1  0     0  0
  9 31  1  0     0  0
 10 12  2  0     0  0
 11 34  1  0     0  0
 12 35  1  0     0  0
 13 19  2  0     0  0
 13 20  1  0     0  0
 14 15  1  0     0  0
 14 16  2  0     0  0
 14 21  1  0     0  0
 15 22  2  0     0  0
 15 23  1  0     0  0
 16 17  1  0     0  0
 16 29  1  0     0  0
 17 24  2  0     0  0
 17 31  1  0     0  0
 18 25  2  0     0  0
 18 26  1  0     0  0
 18 33  1  0     0  0
 19 25  1  0     0  0
 20 26  2  0     0  0
 21 27  2  0     0  0
 22 24  1  0     0  0
 23 28  2  0     0  0
 27 28  1  0     0  0
 30 35  1  0     0  0
 34 36  1  0     0  0
 36 37  1  0     0  0
 37 38  1  0     0  0
M  END
> <standard_type>
pIC50

> <# Confs.>
25

> <canonical_smiles>
CCCCC1=NC(Cl)=C(CC(OC)=O)N1CC2=CC=C(NC(C3=CC=C(C=CC=C4)C4=C3C(O)=O)=O)C=C2

> <standard_relation>
=

> <Publication_ID>
nan

> <predicted_activity_value>
5.522878745280337

> <actual_activity_value>
5.236572006437063

> <Compound>
19

> <standard_units>
nM

> hash
9828163350660041123

$$$$
18
XXILIB    08252103513D 0   0.00000     0.00000

 38 41  0     1  0            999 V2000
    5.0019    1.4987   -0.0650 Cl  0  0  0  0  0  1           0  0  0
   -0.6308    1.9882    7.8541 O   0  0  0  0  0  2           0  0  0
    1.2816    2.2961   -2.4208 O   0  0  0  0  0  2           0  0  0
   -3.7241    1.5485    5.1831 O   0  0  0  0  0  2           0  0  0
    1.7888    4.3459   -1.4983 O   0  0  0  0  0  2           0  0  0
   -2.3362    3.4740    7.6967 O   0  0  0  0  0  2           0  0  0
    1.4522   -0.0000   -0.0000 N   0  0  0  0  0  3           0  0  0
    3.5396   -0.7595   -0.0143 N   0  0  0  0  0  3           0  0  0
   -2.0717   -0.0680    5.3323 N   0  0  0  0  0  3           0  0  0
    3.5478    0.6103   -0.0330 C   0  0  0  0  0  4           0  0  0
    2.2701   -1.1133    0.0000 C   0  0  0  0  0  4           0  0  0
    2.2624    1.1179   -0.0275 C   0  0  0  0  0  4           0  0  0
   -1.5846   -0.0213    4.0120 C   0  0  0  0  0  4           0  0  0
   -3.1797    1.0024    9.6370 C   0  0  0  0  0  4           0  0  0
   -4.1605    0.0187    9.9241 C   0  0  0  0  0  4           0  0  0
   -2.8301    1.2194    8.2810 C   0  0  0  0  0  4           0  0  0
   -3.4461    0.4920    7.2535 C   0  0  0  0  0  4           0  0  0
   -0.5411    0.0000    1.3972 C   0  0  0  0  0  4           0  0  0
   -2.1127    0.8460    3.0501 C   0  0  0  0  0  4           0  0  0
   -0.5368   -0.8791    3.6631 C   0  0  0  0  0  4           0  0  0
   -2.6069    1.7055   10.7223 C   0  0  0  0  0  4           0  0  0
   -4.7557   -0.7056    8.8768 C   0  0  0  0  0  4           0  0  0
   -4.5327   -0.2277   11.2559 C   0  0  0  0  0  4           0  0  0
   -4.4037   -0.4738    7.5484 C   0  0  0  0  0  4           0  0  0
   -1.5939    0.8535    1.7524 C   0  0  0  0  0  4           0  0  0
   -0.0220   -0.8705    2.3641 C   0  0  0  0  0  4           0  0  0
   -2.9908    1.4480   12.0394 C   0  0  0  0  0  4           0  0  0
   -3.9527    0.4820   12.3056 C   0  0  0  0  0  4           0  0  0
   -1.8243    2.2429    7.9299 C   0  0  0  0  0  4           0  0  0
    1.5773    2.9971   -1.4622 C   0  0  0  0  0  4           0  0  0
   -3.0985    0.7106    5.8288 C   0  0  0  0  0  4           0  0  0
    1.6432    4.9565   -2.7842 C   0  0  0  0  0  4           0  0  0
    0.0000    0.0000   -0.0000 C   0  0  0  0  0  4           0  0  0
    1.7876   -2.5193    0.0145 C   0  0  0  0  0  4           0  0  0
    1.7697    2.5177   -0.0456 C   0  0  0  0  0  4           0  0  0
    2.5528   -3.3849    1.0114 C   0  0  0  0  0  4           0  0  0
    2.0900   -4.8415    1.0609 C   0  0  0  0  0  4           0  0  0
    2.8704   -5.6791    2.0627 C   0  0  0  0  0  4           0  0  0
  1 10  1  0     0  0
  2 29  2  0     0  0
  3 30  2  0     0  0
  4 31  2  0     0  0
  5 30  1  0     0  0
  5 32  1  0     0  0
  6 29  1  0     0  0
  7 11  1  0     0  0
  7 12  1  0     0  0
  7 33  1  0     0  0
  8 10  1  0     0  0
  8 11  2  0     0  0
  9 13  1  0     0  0
  9 31  1  0     0  0
 10 12  2  0     0  0
 11 34  1  0     0  0
 12 35  1  0     0  0
 13 19  2  0     0  0
 13 20  1  0     0  0
 14 15  1  0     0  0
 14 16  2  0     0  0
 14 21  1  0     0  0
 15 22  2  0     0  0
 15 23  1  0     0  0
 16 17  1  0     0  0
 16 29  1  0     0  0
 17 24  2  0     0  0
 17 31  1  0     0  0
 18 25  2  0     0  0
 18 26  1  0     0  0
 18 33  1  0     0  0
 19 25  1  0     0  0
 20 26  2  0     0  0
 21 27  2  0     0  0
 22 24  1  0     0  0
 23 28  2  0     0  0
 27 28  1  0     0  0
 30 35  1  0     0  0
 34 36  1  0     0  0
 36 37  1  0     0  0
 37 38  1  0     0  0
M  END
> <standard_type>
pIC50

> <# Confs.>
25

> <canonical_smiles>
CCCCC1=NC(Cl)=C(CC(OC)=O)N1CC2=CC=C(NC(C3=CC=C(C=CC=C4)C4=C3C(O)=O)=O)C=C2

> <standard_relation>
=

> <Publication_ID>
nan

> <predicted_activity_value>
5.522878745280337

> <actual_activity_value>
5.236572006437063

> <Compound>
19

> <standard_units>
nM

> hash
9828163350660041123

$$$$
18
XXILIB    08252103513D 0   0.00000     0.00000

 38 41  0     1  0            999 V2000
    5.0019    1.4987   -0.0650 Cl  0  0  0  0  0  1           0  0  0
   -4.6177   -2.3272    6.2078 O   0  0  0  0  0  2           0  0  0
    1.2816    2.2961   -2.4208 O   0  0  0  0  0  2           0  0  0
   -3.7241    1.5485    5.1831 O   0  0  0  0  0  2           0  0  0
    1.7888    4.3459   -1.4983 O   0  0  0  0  0  2           0  0  0
   -6.2242   -0.7293    6.1263 O   0  0  0  0  0  2           0  0  0
    1.4522   -0.0000   -0.0000 N   0  0  0  0  0  3           0  0  0
    3.5396   -0.7595   -0.0143 N   0  0  0  0  0  3           0  0  0
   -2.0717   -0.0680    5.3323 N   0  0  0  0  0  3           0  0  0
    3.5478    0.6103   -0.0330 C   0  0  0  0  0  4           0  0  0
    2.2701   -1.1133    0.0000 C   0  0  0  0  0  4           0  0  0
    2.2624    1.1179   -0.0275 C   0  0  0  0  0  4           0  0  0
   -1.5846   -0.0213    4.0120 C   0  0  0  0  0  4           0  0  0
   -4.7221   -0.6531    9.0066 C   0  0  0  0  0  4           0  0  0
   -4.0465    0.1388    9.9704 C   0  0  0  0  0  4           0  0  0
   -4.4072   -0.4523    7.6396 C   0  0  0  0  0  4           0  0  0
   -3.4461    0.4920    7.2535 C   0  0  0  0  0  4           0  0  0
   -0.5411    0.0000    1.3972 C   0  0  0  0  0  4           0  0  0
   -2.1127    0.8460    3.0501 C   0  0  0  0  0  4           0  0  0
   -0.5368   -0.8791    3.6631 C   0  0  0  0  0  4           0  0  0
   -5.6723   -1.5934    9.4681 C   0  0  0  0  0  4           0  0  0
   -3.0950    1.0871    9.5571 C   0  0  0  0  0  4           0  0  0
   -4.3324   -0.0285   11.3354 C   0  0  0  0  0  4           0  0  0
   -2.7935    1.2661    8.2082 C   0  0  0  0  0  4           0  0  0
   -1.5939    0.8535    1.7524 C   0  0  0  0  0  4           0  0  0
   -0.0220   -0.8705    2.3641 C   0  0  0  0  0  4           0  0  0
   -5.9420   -1.7468   10.8291 C   0  0  0  0  0  4           0  0  0
   -5.2726   -0.9647   11.7616 C   0  0  0  0  0  4           0  0  0
   -5.0734   -1.2623    6.5993 C   0  0  0  0  0  4           0  0  0
    1.5773    2.9971   -1.4622 C   0  0  0  0  0  4           0  0  0
   -3.0985    0.7106    5.8288 C   0  0  0  0  0  4           0  0  0
    1.6432    4.9565   -2.7842 C   0  0  0  0  0  4           0  0  0
    0.0000    0.0000   -0.0000 C   0  0  0  0  0  4           0  0  0
    1.7876   -2.5193    0.0145 C   0  0  0  0  0  4           0  0  0
    1.7697    2.5177   -0.0456 C   0  0  0  0  0  4           0  0  0
    1.5858   -3.0778   -1.3913 C   0  0  0  0  0  4           0  0  0
    1.0893   -4.5237   -1.4256 C   0  0  0  0  0  4           0  0  0
    0.8976   -5.0526   -2.8390 C   0  0  0  0  0  4           0  0  0
  1 10  1  0     0  0
  2 29  2  0     0  0
  3 30  2  0     0  0
  4 31  2  0     0  0
  5 30  1  0     0  0
  5 32  1  0     0  0
  6 29  1  0     0  0
  7 11  1  0     0  0
  7 12  1  0     0  0
  7 33  1  0     0  0
  8 10  1  0     0  0
  8 11  2  0     0  0
  9 13  1  0     0  0
  9 31  1  0     0  0
 10 12  2  0     0  0
 11 34  1  0     0  0
 12 35  1  0     0  0
 13 19  2  0     0  0
 13 20  1  0     0  0
 14 15  1  0     0  0
 14 16  2  0     0  0
 14 21  1  0     0  0
 15 22  2  0     0  0
 15 23  1  0     0  0
 16 17  1  0     0  0
 16 29  1  0     0  0
 17 24  2  0     0  0
 17 31  1  0     0  0
 18 25  2  0     0  0
 18 26  1  0     0  0
 18 33  1  0     0  0
 19 25  1  0     0  0
 20 26  2  0     0  0
 21 27  2  0     0  0
 22 24  1  0     0  0
 23 28  2  0     0  0
 27 28  1  0     0  0
 30 35  1  0     0  0
 34 36  1  0     0  0
 36 37  1  0     0  0
 37 38  1  0     0  0
M  END
> <standard_type>
pIC50

> <# Confs.>
25

> <canonical_smiles>
CCCCC1=NC(Cl)=C(CC(OC)=O)N1CC2=CC=C(NC(C3=CC=C(C=CC=C4)C4=C3C(O)=O)=O)C=C2

> <standard_relation>
=

> <Publication_ID>
nan

> <predicted_activity_value>
5.522878745280337

> <actual_activity_value>
5.236572006437063

> <Compound>
19

> <standard_units>
nM

> hash
9828163350660041123

$$$$
18
XXILIB    08252103513D 0   0.00000     0.00000

 38 41  0     1  0            999 V2000
    5.0019    1.4987   -0.0650 Cl  0  0  0  0  0  1           0  0  0
   -5.9198    0.1309    6.3123 O   0  0  0  0  0  2           0  0  0
    1.7906    2.3427   -2.4741 O   0  0  0  0  0  2           0  0  0
   -2.1965   -2.2271    5.7747 O   0  0  0  0  0  2           0  0  0
    1.1252    4.2855   -1.4287 O   0  0  0  0  0  2           0  0  0
   -5.1077   -1.9657    6.0195 O   0  0  0  0  0  2           0  0  0
    1.4522   -0.0000   -0.0000 N   0  0  0  0  0  3           0  0  0
    3.5396   -0.7595   -0.0143 N   0  0  0  0  0  3           0  0  0
   -2.0170    0.0436    5.3535 N   0  0  0  0  0  3           0  0  0
    3.5478    0.6103   -0.0330 C   0  0  0  0  0  4           0  0  0
    2.2701   -1.1133    0.0000 C   0  0  0  0  0  4           0  0  0
    2.2624    1.1179   -0.0275 C   0  0  0  0  0  4           0  0  0
   -1.5247   -0.0054    4.0352 C   0  0  0  0  0  4           0  0  0
   -4.6606   -0.3446    9.0635 C   0  0  0  0  0  4           0  0  0
   -3.7019   -0.2224   10.1018 C   0  0  0  0  0  4           0  0  0
   -4.1936   -0.6138    7.7530 C   0  0  0  0  0  4           0  0  0
   -2.8247   -0.7680    7.4941 C   0  0  0  0  0  4           0  0  0
   -0.5411   -0.0000    1.3972 C   0  0  0  0  0  4           0  0  0
   -1.2877   -1.2124    3.3696 C   0  0  0  0  0  4           0  0  0
   -1.2661    1.2030    3.3807 C   0  0  0  0  0  4           0  0  0
   -6.0256   -0.1870    9.3984 C   0  0  0  0  0  4           0  0  0
   -2.3338   -0.3701    9.8147 C   0  0  0  0  0  4           0  0  0
   -4.1246    0.0465   11.4140 C   0  0  0  0  0  4           0  0  0
   -1.8935   -0.6412    8.5205 C   0  0  0  0  0  4           0  0  0
   -0.7980   -1.2070    2.0606 C   0  0  0  0  0  4           0  0  0
   -0.7744    1.2047    2.0728 C   0  0  0  0  0  4           0  0  0
   -6.4270    0.0784   10.7087 C   0  0  0  0  0  4           0  0  0
   -5.4771    0.1951   11.7153 C   0  0  0  0  0  4           0  0  0
   -5.1538   -0.7639    6.6406 C   0  0  0  0  0  4           0  0  0
    1.5773    2.9971   -1.4622 C   0  0  0  0  0  4           0  0  0
   -2.3183   -1.0571    6.1309 C   0  0  0  0  0  4           0  0  0
    0.8924    4.8884   -2.7053 C   0  0  0  0  0  4           0  0  0
    0.0000    0.0000    0.0000 C   0  0  0  0  0  4           0  0  0
    1.7876   -2.5193    0.0145 C   0  0  0  0  0  4           0  0  0
    1.7697    2.5177   -0.0456 C   0  0  0  0  0  4           0  0  0
    2.5337   -3.3990   -0.9846 C   0  0  0  0  0  4           0  0  0
    2.0703   -4.8560   -1.0047 C   0  0  0  0  0  4           0  0  0
    0.6002   -5.0069   -1.3659 C   0  0  0  0  0  4           0  0  0
  1 10  1  0     0  0
  2 29  2  0     0  0
  3 30  2  0     0  0
  4 31  2  0     0  0
  5 30  1  0     0  0
  5 32  1  0     0  0
  6 29  1  0     0  0
  7 11  1  0     0  0
  7 12  1  0     0  0
  7 33  1  0     0  0
  8 10  1  0     0  0
  8 11  2  0     0  0
  9 13  1  0     0  0
  9 31  1  0     0  0
 10 12  2  0     0  0
 11 34  1  0     0  0
 12 35  1  0     0  0
 13 19  2  0     0  0
 13 20  1  0     0  0
 14 15  1  0     0  0
 14 16  2  0     0  0
 14 21  1  0     0  0
 15 22  2  0     0  0
 15 23  1  0     0  0
 16 17  1  0     0  0
 16 29  1  0     0  0
 17 24  2  0     0  0
 17 31  1  0     0  0
 18 25  2  0     0  0
 18 26  1  0     0  0
 18 33  1  0     0  0
 19 25  1  0     0  0
 20 26  2  0     0  0
 21 27  2  0     0  0
 22 24  1  0     0  0
 23 28  2  0     0  0
 27 28  1  0     0  0
 30 35  1  0     0  0
 34 36  1  0     0  0
 36 37  1  0     0  0
 37 38  1  0     0  0
M  END
> <standard_type>
pIC50

> <# Confs.>
25

> <canonical_smiles>
CCCCC1=NC(Cl)=C(CC(OC)=O)N1CC2=CC=C(NC(C3=CC=C(C=CC=C4)C4=C3C(O)=O)=O)C=C2

> <standard_relation>
=

> <Publication_ID>
nan

> <predicted_activity_value>
5.522878745280337

> <actual_activity_value>
5.236572006437063

> <Compound>
19

> <standard_units>
nM

> hash
9828163350660041123

$$$$
18
XXILIB    08252103513D 0   0.00000     0.00000

 38 41  0     1  0            999 V2000
    5.0019   -1.4987    0.0650 Cl  0  0  0  0  0  1           0  0  0
    0.2785    0.1430    8.6023 O   0  0  0  0  0  2           0  0  0
    1.3331   -2.3760   -2.3456 O   0  0  0  0  0  2           0  0  0
   -2.1965   -2.2271    5.7747 O   0  0  0  0  0  2           0  0  0
    1.8185   -4.3938   -1.3440 O   0  0  0  0  0  2           0  0  0
   -0.1159   -1.9756    7.8972 O   0  0  0  0  0  2           0  0  0
    1.4522   -0.0000    0.0000 N   0  0  0  0  0  3           0  0  0
    3.5396    0.7595    0.0143 N   0  0  0  0  0  3           0  0  0
   -2.0170    0.0436    5.3535 N   0  0  0  0  0  3           0  0  0
    3.5478   -0.6103    0.0330 C   0  0  0  0  0  4           0  0  0
    2.2701    1.1133    0.0000 C   0  0  0  0  0  4           0  0  0
    2.2624   -1.1179    0.0275 C   0  0  0  0  0  4           0  0  0
   -1.5247   -0.0054    4.0352 C   0  0  0  0  0  4           0  0  0
   -2.4594   -0.3520    9.8829 C   0  0  0  0  0  4           0  0  0
   -3.8628   -0.2204   10.0415 C   0  0  0  0  0  4           0  0  0
   -1.9584   -0.6354    8.5880 C   0  0  0  0  0  4           0  0  0
   -2.8247   -0.7680    7.4941 C   0  0  0  0  0  4           0  0  0
   -0.5411   -0.0000    1.3972 C   0  0  0  0  0  4           0  0  0
   -1.2877   -1.2124    3.3696 C   0  0  0  0  0  4           0  0  0
   -1.2661    1.2030    3.3807 C   0  0  0  0  0  4           0  0  0
   -1.6443   -0.1958   11.0281 C   0  0  0  0  0  4           0  0  0
   -4.7116   -0.3690    8.9310 C   0  0  0  0  0  4           0  0  0
   -4.3987    0.0580   11.3097 C   0  0  0  0  0  4           0  0  0
   -4.2002   -0.6413    7.6635 C   0  0  0  0  0  4           0  0  0
   -0.7980   -1.2070    2.0606 C   0  0  0  0  0  4           0  0  0
   -0.7744    1.2047    2.0728 C   0  0  0  0  0  4           0  0  0
   -2.1949    0.0823   12.2802 C   0  0  0  0  0  4           0  0  0
   -3.5709    0.2088   12.4206 C   0  0  0  0  0  4           0  0  0
   -0.5035   -0.7676    8.3691 C   0  0  0  0  0  4           0  0  0
    1.6078   -3.0444   -1.3579 C   0  0  0  0  0  4           0  0  0
   -2.3183   -1.0571    6.1309 C   0  0  0  0  0  4           0  0  0
    1.6992   -5.0473   -2.6114 C   0  0  0  0  0  4           0  0  0
    0.0000    0.0000    0.0000 C   0  0  0  0  0  4           0  0  0
    1.7876    2.5193   -0.0145 C   0  0  0  0  0  4           0  0  0
    1.7697   -2.5177    0.0456 C   0  0  0  0  0  4           0  0  0
    2.5528    3.3849   -1.0114 C   0  0  0  0  0  4           0  0  0
    2.4557    2.9063   -2.4604 C   0  0  0  0  0  4           0  0  0
    3.2278    3.7881   -3.4304 C   0  0  0  0  0  4           0  0  0
  1 10  1  0     0  0
  2 29  2  0     0  0
  3 30  2  0     0  0
  4 31  2  0     0  0
  5 30  1  0     0  0
  5 32  1  0     0  0
  6 29  1  0     0  0
  7 11  1  0     0  0
  7 12  1  0     0  0
  7 33  1  0     0  0
  8 10  1  0     0  0
  8 11  2  0     0  0
  9 13  1  0     0  0
  9 31  1  0     0  0
 10 12  2  0     0  0
 11 34  1  0     0  0
 12 35  1  0     0  0
 13 19  2  0     0  0
 13 20  1  0     0  0
 14 15  1  0     0  0
 14 16  2  0     0  0
 14 21  1  0     0  0
 15 22  2  0     0  0
 15 23  1  0     0  0
 16 17  1  0     0  0
 16 29  1  0     0  0
 17 24  2  0     0  0
 17 31  1  0     0  0
 18 25  2  0     0  0
 18 26  1  0     0  0
 18 33  1  0     0  0
 19 25  1  0     0  0
 20 26  2  0     0  0
 21 27  2  0     0  0
 22 24  1  0     0  0
 23 28  2  0     0  0
 27 28  1  0     0  0
 30 35  1  0     0  0
 34 36  1  0     0  0
 36 37  1  0     0  0
 37 38  1  0     0  0
M  END
> <standard_type>
pIC50

> <# Confs.>
25

> <canonical_smiles>
CCCCC1=NC(Cl)=C(CC(OC)=O)N1CC2=CC=C(NC(C3=CC=C(C=CC=C4)C4=C3C(O)=O)=O)C=C2

> <standard_relation>
=

> <Publication_ID>
nan

> <predicted_activity_value>
5.522878745280337

> <actual_activity_value>
5.236572006437063

> <Compound>
19

> <standard_units>
nM

> hash
9828163350660041123

$$$$
12
XXILIB    08252103513D 0   0.00000     0.00000

 39 41  0     1  0            999 V2000
    5.0031   -1.4965   -0.0707 Cl  0  0  0  0  0  1           0  0  0
   -3.9250   -3.6566    6.7496 S   0  0  1  0  0  6           0  0  0
   -4.0167   -4.0297    9.3140 F   0  0  0  0  0  1           0  0  0
   -5.7743   -4.7251    8.2202 F   0  0  0  0  0  1           0  0  0
   -3.9079   -5.8503    8.1175 F   0  0  0  0  0  1           0  0  0
   -4.4114   -4.3493    5.5717 O   0  0  0  0  0  2           0  0  0
   -2.5198   -3.3368    6.9061 O   0  0  0  0  0  2           0  0  0
    1.2678   -2.2804   -2.3696 O   0  0  0  0  0  2           0  0  0
   -4.3086   -0.0590    4.9586 O   0  0  0  0  0  2           0  0  0
    1.8112   -4.3490   -1.5040 O   0  0  0  0  0  2           0  0  0
    1.4518    0.0000   -0.0000 N   0  0  0  0  0  3           0  0  0
    3.5392    0.7614   -0.0216 N   0  0  0  0  0  3           0  0  0
   -4.8594   -2.2461    7.0220 N   0  0  0  0  0  3           0  0  0
   -2.0254   -0.0786    5.3497 N   0  0  0  0  0  3           0  0  0
    3.5484   -0.6083   -0.0369 C   0  0  0  0  0  4           0  0  0
    2.2693    1.1141    0.0000 C   0  0  0  0  0  4           0  0  0
    2.2632   -1.1180   -0.0244 C   0  0  0  0  0  4           0  0  0
   -4.3278   -1.1571    7.7973 C   0  0  0  0  0  4           0  0  0
   -1.5639   -0.0522    4.0198 C   0  0  0  0  0  4           0  0  0
   -3.6057   -0.1101    7.1916 C   0  0  0  0  0  4           0  0  0
   -0.5425   -0.0000    1.3969 C   0  0  0  0  0  4           0  0  0
   -4.5872   -1.1034    9.1756 C   0  0  0  0  0  4           0  0  0
   -2.4345   -0.0243    2.9256 C   0  0  0  0  0  4           0  0  0
   -0.1828   -0.0560    3.7996 C   0  0  0  0  0  4           0  0  0
   -3.1221    0.9447    7.9826 C   0  0  0  0  0  4           0  0  0
   -1.9251    0.0000    1.6242 C   0  0  0  0  0  4           0  0  0
    0.3231   -0.0319    2.4977 C   0  0  0  0  0  4           0  0  0
   -4.1031   -0.0495    9.9503 C   0  0  0  0  0  4           0  0  0
   -3.3672    0.9697    9.3554 C   0  0  0  0  0  4           0  0  0
   -4.4265   -4.5988    8.1546 C   0  0  1  0  0  4           0  0  0
    1.5743   -3.0089   -1.4337 C   0  0  0  0  0  4           0  0  0
   -3.3525   -0.0803    5.7309 C   0  0  0  0  0  4           0  0  0
    1.6817   -4.9282   -2.8064 C   0  0  0  0  0  4           0  0  0
    0.0000    0.0000    0.0000 C   0  0  0  0  0  4           0  0  0
    1.7861    2.5194    0.0249 C   0  0  0  0  0  4           0  0  0
    1.7753   -2.5197   -0.0263 C   0  0  0  0  0  4           0  0  0
    1.5741    3.0852   -1.3760 C   0  0  0  0  0  4           0  0  0
    1.0763    4.5308   -1.4050 C   0  0  0  0  0  4           0  0  0
    0.8881    5.0269   -2.8294 C   0  0  0  0  0  4           0  0  0
  1 15  1  0     0  0
  2  6  2  0     0  0
  2  7  2  0     0  0
  2 13  1  0     0  0
  2 30  1  0     0  0
  3 30  1  0     0  0
  4 30  1  0     0  0
  5 30  1  0     0  0
  8 31  2  0     0  0
  9 32  2  0     0  0
 10 31  1  0     0  0
 10 33  1  0     0  0
 11 16  1  0     0  0
 11 17  1  0     0  0
 11 34  1  0     0  0
 12 15  1  0     0  0
 12 16  2  0     0  0
 13 18  1  0     0  0
 14 19  1  0     0  0
 14 32  1  0     0  0
 15 17  2  0     0  0
 16 35  1  0     0  0
 17 36  1  0     0  0
 18 20  1  0     0  0
 18 22  2  0     0  0
 19 23  2  0     0  0
 19 24  1  0     0  0
 20 25  2  0     0  0
 20 32  1  0     0  0
 21 26  2  0     0  0
 21 27  1  0     0  0
 21 34  1  0     0  0
 22 28  1  0     0  0
 23 26  1  0     0  0
 24 27  2  0     0  0
 25 29  1  0     0  0
 28 29  2  0     0  0
 31 36  1  0     0  0
 35 37  1  0     0  0
 37 38  1  0     0  0
 38 39  1  0     0  0
M  END
> <standard_type>
pIC50

> <# Confs.>
25

> <canonical_smiles>
ClC(N=C1CCCC)=C(CC(OC)=O)N1CC2=CC=C(NC(C3=CC=CC=C3NS(=O)(C(F)(F)F)=O)=O)C=C2

> <standard_relation>
=

> <Publication_ID>
nan

> <predicted_activity_value>
5.337242168318426

> <actual_activity_value>
6.301029995663981

> <Compound>
13

> <standard_units>
nM

> hash
2012092047828091155

$$$$
12
XXILIB    08252103513D 0   0.00000     0.00000

 39 41  0     1  0            999 V2000
    5.0031    1.4965    0.0707 Cl  0  0  0  0  0  1           0  0  0
   -3.9250   -3.6566    6.7496 S   0  0  1  0  0  6           0  0  0
   -4.0167   -4.0297    9.3140 F   0  0  0  0  0  1           0  0  0
   -5.7743   -4.7251    8.2202 F   0  0  0  0  0  1           0  0  0
   -3.9079   -5.8503    8.1175 F   0  0  0  0  0  1           0  0  0
   -4.4114   -4.3493    5.5717 O   0  0  0  0  0  2           0  0  0
   -2.5198   -3.3368    6.9061 O   0  0  0  0  0  2           0  0  0
    1.3577    2.3181   -2.3382 O   0  0  0  0  0  2           0  0  0
   -4.3086   -0.0590    4.9586 O   0  0  0  0  0  2           0  0  0
    1.8079    4.3819   -1.4098 O   0  0  0  0  0  2           0  0  0
    1.4518    0.0000    0.0000 N   0  0  0  0  0  3           0  0  0
    3.5392   -0.7614    0.0216 N   0  0  0  0  0  3           0  0  0
   -4.8594   -2.2461    7.0220 N   0  0  0  0  0  3           0  0  0
   -2.0254   -0.0786    5.3497 N   0  0  0  0  0  3           0  0  0
    3.5484    0.6083    0.0369 C   0  0  0  0  0  4           0  0  0
    2.2693   -1.1141    0.0000 C   0  0  0  0  0  4           0  0  0
    2.2632    1.1180    0.0244 C   0  0  0  0  0  4           0  0  0
   -4.3278   -1.1571    7.7973 C   0  0  0  0  0  4           0  0  0
   -1.5639   -0.0522    4.0198 C   0  0  0  0  0  4           0  0  0
   -3.6057   -0.1101    7.1916 C   0  0  0  0  0  4           0  0  0
   -0.5425   -0.0000    1.3969 C   0  0  0  0  0  4           0  0  0
   -4.5872   -1.1034    9.1756 C   0  0  0  0  0  4           0  0  0
   -2.4345   -0.0243    2.9256 C   0  0  0  0  0  4           0  0  0
   -0.1828   -0.0560    3.7996 C   0  0  0  0  0  4           0  0  0
   -3.1221    0.9447    7.9826 C   0  0  0  0  0  4           0  0  0
   -1.9251    0.0000    1.6242 C   0  0  0  0  0  4           0  0  0
    0.3231   -0.0319    2.4977 C   0  0  0  0  0  4           0  0  0
   -4.1031   -0.0495    9.9503 C   0  0  0  0  0  4           0  0  0
   -3.3672    0.9697    9.3554 C   0  0  0  0  0  4           0  0  0
   -4.4265   -4.5988    8.1546 C   0  0  1  0  0  4           0  0  0
    1.6280    3.0314   -1.3797 C   0  0  0  0  0  4           0  0  0
   -3.3525   -0.0803    5.7309 C   0  0  0  0  0  4           0  0  0
    1.6604    4.9926   -2.6958 C   0  0  0  0  0  4           0  0  0
    0.0000    0.0000    0.0000 C   0  0  0  0  0  4           0  0  0
    1.7861   -2.5194   -0.0249 C   0  0  0  0  0  4           0  0  0
    1.7753    2.5197    0.0263 C   0  0  0  0  0  4           0  0  0
    1.6206   -3.0511   -1.4453 C   0  0  0  0  0  4           0  0  0
    1.1246   -4.4954   -1.5256 C   0  0  0  0  0  4           0  0  0
    0.9836   -4.9568   -2.9670 C   0  0  0  0  0  4           0  0  0
  1 15  1  0     0  0
  2  6  2  0     0  0
  2  7  2  0     0  0
  2 13  1  0     0  0
  2 30  1  0     0  0
  3 30  1  0     0  0
  4 30  1  0     0  0
  5 30  1  0     0  0
  8 31  2  0     0  0
  9 32  2  0     0  0
 10 31  1  0     0  0
 10 33  1  0     0  0
 11 16  1  0     0  0
 11 17  1  0     0  0
 11 34  1  0     0  0
 12 15  1  0     0  0
 12 16  2  0     0  0
 13 18  1  0     0  0
 14 19  1  0     0  0
 14 32  1  0     0  0
 15 17  2  0     0  0
 16 35  1  0     0  0
 17 36  1  0     0  0
 18 20  1  0     0  0
 18 22  2  0     0  0
 19 23  2  0     0  0
 19 24  1  0     0  0
 20 25  2  0     0  0
 20 32  1  0     0  0
 21 26  2  0     0  0
 21 27  1  0     0  0
 21 34  1  0     0  0
 22 28  1  0     0  0
 23 26  1  0     0  0
 24 27  2  0     0  0
 25 29  1  0     0  0
 28 29  2  0     0  0
 31 36  1  0     0  0
 35 37  1  0     0  0
 37 38  1  0     0  0
 38 39  1  0     0  0
M  END
> <standard_type>
pIC50

> <# Confs.>
25

> <canonical_smiles>
ClC(N=C1CCCC)=C(CC(OC)=O)N1CC2=CC=C(NC(C3=CC=CC=C3NS(=O)(C(F)(F)F)=O)=O)C=C2

> <standard_relation>
=

> <Publication_ID>
nan

> <predicted_activity_value>
5.337242168318426

> <actual_activity_value>
6.301029995663981

> <Compound>
13

> <standard_units>
nM

> hash
2012092047828091155

$$$$
12
XXILIB    08252103513D 0   0.00000     0.00000

 39 41  0     1  0            999 V2000
    5.0031   -1.4965   -0.0707 Cl  0  0  0  0  0  1           0  0  0
   -3.9250   -3.6566    6.7496 S   0  0  1  0  0  6           0  0  0
   -4.0167   -4.0297    9.3140 F   0  0  0  0  0  1           0  0  0
   -5.7743   -4.7251    8.2202 F   0  0  0  0  0  1           0  0  0
   -3.9079   -5.8503    8.1175 F   0  0  0  0  0  1           0  0  0
   -4.4114   -4.3493    5.5717 O   0  0  0  0  0  2           0  0  0
   -2.5198   -3.3368    6.9061 O   0  0  0  0  0  2           0  0  0
    1.2678   -2.2804   -2.3696 O   0  0  0  0  0  2           0  0  0
   -4.3086   -0.0590    4.9586 O   0  0  0  0  0  2           0  0  0
    1.8112   -4.3490   -1.5040 O   0  0  0  0  0  2           0  0  0
    1.4518    0.0000   -0.0000 N   0  0  0  0  0  3           0  0  0
    3.5392    0.7614   -0.0216 N   0  0  0  0  0  3           0  0  0
   -4.8594   -2.2461    7.0220 N   0  0  0  0  0  3           0  0  0
   -2.0254   -0.0786    5.3497 N   0  0  0  0  0  3           0  0  0
    3.5484   -0.6083   -0.0369 C   0  0  0  0  0  4           0  0  0
    2.2693    1.1141    0.0000 C   0  0  0  0  0  4           0  0  0
    2.2632   -1.1180   -0.0244 C   0  0  0  0  0  4           0  0  0
   -4.3278   -1.1571    7.7973 C   0  0  0  0  0  4           0  0  0
   -1.5639   -0.0522    4.0198 C   0  0  0  0  0  4           0  0  0
   -3.6057   -0.1101    7.1916 C   0  0  0  0  0  4           0  0  0
   -0.5425   -0.0000    1.3969 C   0  0  0  0  0  4           0  0  0
   -4.5872   -1.1034    9.1756 C   0  0  0  0  0  4           0  0  0
   -2.4345   -0.0243    2.9256 C   0  0  0  0  0  4           0  0  0
   -0.1828   -0.0560    3.7996 C   0  0  0  0  0  4           0  0  0
   -3.1221    0.9447    7.9826 C   0  0  0  0  0  4           0  0  0
   -1.9251    0.0000    1.6242 C   0  0  0  0  0  4           0  0  0
    0.3231   -0.0319    2.4977 C   0  0  0  0  0  4           0  0  0
   -4.1031   -0.0495    9.9503 C   0  0  0  0  0  4           0  0  0
   -3.3672    0.9697    9.3554 C   0  0  0  0  0  4           0  0  0
   -4.4265   -4.5988    8.1546 C   0  0  1  0  0  4           0  0  0
    1.5743   -3.0089   -1.4337 C   0  0  0  0  0  4           0  0  0
   -3.3525   -0.0803    5.7309 C   0  0  0  0  0  4           0  0  0
    1.6817   -4.9282   -2.8064 C   0  0  0  0  0  4           0  0  0
    0.0000    0.0000    0.0000 C   0  0  0  0  0  4           0  0  0
    1.7861    2.5194    0.0249 C   0  0  0  0  0  4           0  0  0
    1.7753   -2.5197   -0.0263 C   0  0  0  0  0  4           0  0  0
    2.5571    3.3807    1.0206 C   0  0  0  0  0  4           0  0  0
    2.4738    2.8995    2.4697 C   0  0  0  0  0  4           0  0  0
    3.2632    3.8027    3.4030 C   0  0  0  0  0  4           0  0  0
  1 15  1  0     0  0
  2  6  2  0     0  0
  2  7  2  0     0  0
  2 13  1  0     0  0
  2 30  1  0     0  0
  3 30  1  0     0  0
  4 30  1  0     0  0
  5 30  1  0     0  0
  8 31  2  0     0  0
  9 32  2  0     0  0
 10 31  1  0     0  0
 10 33  1  0     0  0
 11 16  1  0     0  0
 11 17  1  0     0  0
 11 34  1  0     0  0
 12 15  1  0     0  0
 12 16  2  0     0  0
 13 18  1  0     0  0
 14 19  1  0     0  0
 14 32  1  0     0  0
 15 17  2  0     0  0
 16 35  1  0     0  0
 17 36  1  0     0  0
 18 20  1  0     0  0
 18 22  2  0     0  0
 19 23  2  0     0  0
 19 24  1  0     0  0
 20 25  2  0     0  0
 20 32  1  0     0  0
 21 26  2  0     0  0
 21 27  1  0     0  0
 21 34  1  0     0  0
 22 28  1  0     0  0
 23 26  1  0     0  0
 24 27  2  0     0  0
 25 29  1  0     0  0
 28 29  2  0     0  0
 31 36  1  0     0  0
 35 37  1  0     0  0
 37 38  1  0     0  0
 38 39  1  0     0  0
M  END
> <standard_type>
pIC50

> <# Confs.>
25

> <canonical_smiles>
ClC(N=C1CCCC)=C(CC(OC)=O)N1CC2=CC=C(NC(C3=CC=CC=C3NS(=O)(C(F)(F)F)=O)=O)C=C2

> <standard_relation>
=

> <Publication_ID>
nan

> <predicted_activity_value>
5.337242168318426

> <actual_activity_value>
6.301029995663981

> <Compound>
13

> <standard_units>
nM

> hash
2012092047828091155

$$$$
12
XXILIB    08252103513D 0   0.00000     0.00000

 39 41  0     1  0            999 V2000
    5.0031   -1.4965   -0.0707 Cl  0  0  0  0  0  1           0  0  0
   -3.9250   -3.6566    6.7496 S   0  0  1  0  0  6           0  0  0
   -4.0167   -4.0297    9.3140 F   0  0  0  0  0  1           0  0  0
   -5.7743   -4.7251    8.2202 F   0  0  0  0  0  1           0  0  0
   -3.9079   -5.8503    8.1175 F   0  0  0  0  0  1           0  0  0
   -4.4114   -4.3493    5.5717 O   0  0  0  0  0  2           0  0  0
   -2.5198   -3.3368    6.9061 O   0  0  0  0  0  2           0  0  0
    2.3197   -2.6529    2.3171 O   0  0  0  0  0  2           0  0  0
   -4.3086   -0.0590    4.9586 O   0  0  0  0  0  2           0  0  0
    0.6100   -3.9349    1.4470 O   0  0  0  0  0  2           0  0  0
    1.4518    0.0000    0.0000 N   0  0  0  0  0  3           0  0  0
    3.5392    0.7614   -0.0216 N   0  0  0  0  0  3           0  0  0
   -4.8594   -2.2461    7.0220 N   0  0  0  0  0  3           0  0  0
   -2.0254   -0.0786    5.3497 N   0  0  0  0  0  3           0  0  0
    3.5484   -0.6083   -0.0369 C   0  0  0  0  0  4           0  0  0
    2.2693    1.1141    0.0000 C   0  0  0  0  0  4           0  0  0
    2.2632   -1.1180   -0.0244 C   0  0  0  0  0  4           0  0  0
   -4.3278   -1.1571    7.7973 C   0  0  0  0  0  4           0  0  0
   -1.5639   -0.0522    4.0198 C   0  0  0  0  0  4           0  0  0
   -3.6057   -0.1101    7.1916 C   0  0  0  0  0  4           0  0  0
   -0.5425   -0.0000    1.3969 C   0  0  0  0  0  4           0  0  0
   -4.5872   -1.1034    9.1756 C   0  0  0  0  0  4           0  0  0
   -2.4345   -0.0243    2.9256 C   0  0  0  0  0  4           0  0  0
   -0.1828   -0.0560    3.7996 C   0  0  0  0  0  4           0  0  0
   -3.1221    0.9447    7.9826 C   0  0  0  0  0  4           0  0  0
   -1.9251    0.0000    1.6242 C   0  0  0  0  0  4           0  0  0
    0.3231   -0.0319    2.4977 C   0  0  0  0  0  4           0  0  0
   -4.1031   -0.0495    9.9503 C   0  0  0  0  0  4           0  0  0
   -3.3672    0.9697    9.3554 C   0  0  0  0  0  4           0  0  0
   -4.4265   -4.5988    8.1546 C   0  0  1  0  0  4           0  0  0
    1.6280   -3.0314    1.3797 C   0  0  0  0  0  4           0  0  0
   -3.3525   -0.0803    5.7309 C   0  0  0  0  0  4           0  0  0
    0.3509   -4.4724    2.7479 C   0  0  0  0  0  4           0  0  0
    0.0000    0.0000    0.0000 C   0  0  0  0  0  4           0  0  0
    1.7861    2.5194    0.0249 C   0  0  0  0  0  4           0  0  0
    1.7753   -2.5197   -0.0263 C   0  0  0  0  0  4           0  0  0
    1.5741    3.0852   -1.3760 C   0  0  0  0  0  4           0  0  0
    1.0763    4.5308   -1.4050 C   0  0  0  0  0  4           0  0  0
    0.8881    5.0269   -2.8294 C   0  0  0  0  0  4           0  0  0
  1 15  1  0     0  0
  2  6  2  0     0  0
  2  7  2  0     0  0
  2 13  1  0     0  0
  2 30  1  0     0  0
  3 30  1  0     0  0
  4 30  1  0     0  0
  5 30  1  0     0  0
  8 31  2  0     0  0
  9 32  2  0     0  0
 10 31  1  0     0  0
 10 33  1  0     0  0
 11 16  1  0     0  0
 11 17  1  0     0  0
 11 34  1  0     0  0
 12 15  1  0     0  0
 12 16  2  0     0  0
 13 18  1  0     0  0
 14 19  1  0     0  0
 14 32  1  0     0  0
 15 17  2  0     0  0
 16 35  1  0     0  0
 17 36  1  0     0  0
 18 20  1  0     0  0
 18 22  2  0     0  0
 19 23  2  0     0  0
 19 24  1  0     0  0
 20 25  2  0     0  0
 20 32  1  0     0  0
 21 26  2  0     0  0
 21 27  1  0     0  0
 21 34  1  0     0  0
 22 28  1  0     0  0
 23 26  1  0     0  0
 24 27  2  0     0  0
 25 29  1  0     0  0
 28 29  2  0     0  0
 31 36  1  0     0  0
 35 37  1  0     0  0
 37 38  1  0     0  0
 38 39  1  0     0  0
M  END
> <standard_type>
pIC50

> <# Confs.>
25

> <canonical_smiles>
ClC(N=C1CCCC)=C(CC(OC)=O)N1CC2=CC=C(NC(C3=CC=CC=C3NS(=O)(C(F)(F)F)=O)=O)C=C2

> <standard_relation>
=

> <Publication_ID>
nan

> <predicted_activity_value>
5.337242168318426

> <actual_activity_value>
6.301029995663981

> <Compound>
13

> <standard_units>
nM

> hash
2012092047828091155

$$$$
12
XXILIB    08252103513D 0   0.00000     0.00000

 39 41  0     1  0            999 V2000
    5.0031   -1.4965   -0.0707 Cl  0  0  0  0  0  1           0  0  0
   -3.9250   -3.6566    6.7496 S   0  0  1  0  0  6           0  0  0
   -4.0167   -4.0297    9.3140 F   0  0  0  0  0  1           0  0  0
   -5.7743   -4.7251    8.2202 F   0  0  0  0  0  1           0  0  0
   -3.9079   -5.8503    8.1175 F   0  0  0  0  0  1           0  0  0
   -4.4114   -4.3493    5.5717 O   0  0  0  0  0  2           0  0  0
   -2.5198   -3.3368    6.9061 O   0  0  0  0  0  2           0  0  0
    1.7899   -2.3268   -2.4281 O   0  0  0  0  0  2           0  0  0
   -4.3086   -0.0590    4.9586 O   0  0  0  0  0  2           0  0  0
    1.1553   -4.3056   -1.4254 O   0  0  0  0  0  2           0  0  0
    1.4518    0.0000   -0.0000 N   0  0  0  0  0  3           0  0  0
    3.5392    0.7614   -0.0216 N   0  0  0  0  0  3           0  0  0
   -4.8594   -2.2461    7.0220 N   0  0  0  0  0  3           0  0  0
   -2.0254   -0.0786    5.3497 N   0  0  0  0  0  3           0  0  0
    3.5484   -0.6083   -0.0369 C   0  0  0  0  0  4           0  0  0
    2.2693    1.1141    0.0000 C   0  0  0  0  0  4           0  0  0
    2.2632   -1.1180   -0.0244 C   0  0  0  0  0  4           0  0  0
   -4.3278   -1.1571    7.7973 C   0  0  0  0  0  4           0  0  0
   -1.5639   -0.0522    4.0198 C   0  0  0  0  0  4           0  0  0
   -3.6057   -0.1101    7.1916 C   0  0  0  0  0  4           0  0  0
   -0.5425   -0.0000    1.3969 C   0  0  0  0  0  4           0  0  0
   -4.5872   -1.1034    9.1756 C   0  0  0  0  0  4           0  0  0
   -2.4345   -0.0243    2.9256 C   0  0  0  0  0  4           0  0  0
   -0.1828   -0.0560    3.7996 C   0  0  0  0  0  4           0  0  0
   -3.1221    0.9447    7.9826 C   0  0  0  0  0  4           0  0  0
   -1.9251    0.0000    1.6242 C   0  0  0  0  0  4           0  0  0
    0.3231   -0.0319    2.4977 C   0  0  0  0  0  4           0  0  0
   -4.1031   -0.0495    9.9503 C   0  0  0  0  0  4           0  0  0
   -3.3672    0.9697    9.3554 C   0  0  0  0  0  4           0  0  0
   -4.4265   -4.5988    8.1546 C   0  0  1  0  0  4           0  0  0
    1.5743   -3.0089   -1.4337 C   0  0  0  0  0  4           0  0  0
   -3.3525   -0.0803    5.7309 C   0  0  0  0  0  4           0  0  0
    0.9584   -4.8957   -2.7144 C   0  0  0  0  0  4           0  0  0
    0.0000    0.0000    0.0000 C   0  0  0  0  0  4           0  0  0
    1.7861    2.5194    0.0249 C   0  0  0  0  0  4           0  0  0
    1.7753   -2.5197   -0.0263 C   0  0  0  0  0  4           0  0  0
    1.5741    3.0852   -1.3760 C   0  0  0  0  0  4           0  0  0
    2.8317    3.1062   -2.2459 C   0  0  0  0  0  4           0  0  0
    2.5465    3.6810   -3.6238 C   0  0  0  0  0  4           0  0  0
  1 15  1  0     0  0
  2  6  2  0     0  0
  2  7  2  0     0  0
  2 13  1  0     0  0
  2 30  1  0     0  0
  3 30  1  0     0  0
  4 30  1  0     0  0
  5 30  1  0     0  0
  8 31  2  0     0  0
  9 32  2  0     0  0
 10 31  1  0     0  0
 10 33  1  0     0  0
 11 16  1  0     0  0
 11 17  1  0     0  0
 11 34  1  0     0  0
 12 15  1  0     0  0
 12 16  2  0     0  0
 13 18  1  0     0  0
 14 19  1  0     0  0
 14 32  1  0     0  0
 15 17  2  0     0  0
 16 35  1  0     0  0
 17 36  1  0     0  0
 18 20  1  0     0  0
 18 22  2  0     0  0
 19 23  2  0     0  0
 19 24  1  0     0  0
 20 25  2  0     0  0
 20 32  1  0     0  0
 21 26  2  0     0  0
 21 27  1  0     0  0
 21 34  1  0     0  0
 22 28  1  0     0  0
 23 26  1  0     0  0
 24 27  2  0     0  0
 25 29  1  0     0  0
 28 29  2  0     0  0
 31 36  1  0     0  0
 35 37  1  0     0  0
 37 38  1  0     0  0
 38 39  1  0     0  0
M  END
> <standard_type>
pIC50

> <# Confs.>
25

> <canonical_smiles>
ClC(N=C1CCCC)=C(CC(OC)=O)N1CC2=CC=C(NC(C3=CC=CC=C3NS(=O)(C(F)(F)F)=O)=O)C=C2

> <standard_relation>
=

> <Publication_ID>
nan

> <predicted_activity_value>
5.337242168318426

> <actual_activity_value>
6.301029995663981

> <Compound>
13

> <standard_units>
nM

> hash
2012092047828091155

$$$$
12
XXILIB    08252103513D 0   0.00000     0.00000

 39 41  0     1  0            999 V2000
    5.0031    1.4965    0.0707 Cl  0  0  0  0  0  1           0  0  0
   -3.9250   -3.6566    6.7496 S   0  0  1  0  0  6           0  0  0
   -4.0167   -4.0297    9.3140 F   0  0  0  0  0  1           0  0  0
   -5.7743   -4.7251    8.2202 F   0  0  0  0  0  1           0  0  0
   -3.9079   -5.8503    8.1175 F   0  0  0  0  0  1           0  0  0
   -4.4114   -4.3493    5.5717 O   0  0  0  0  0  2           0  0  0
   -2.5198   -3.3368    6.9061 O   0  0  0  0  0  2           0  0  0
    1.3577    2.3181   -2.3382 O   0  0  0  0  0  2           0  0  0
   -4.3086   -0.0590    4.9586 O   0  0  0  0  0  2           0  0  0
    1.8079    4.3819   -1.4098 O   0  0  0  0  0  2           0  0  0
    1.4518    0.0000    0.0000 N   0  0  0  0  0  3           0  0  0
    3.5392   -0.7614    0.0216 N   0  0  0  0  0  3           0  0  0
   -4.8594   -2.2461    7.0220 N   0  0  0  0  0  3           0  0  0
   -2.0254   -0.0786    5.3497 N   0  0  0  0  0  3           0  0  0
    3.5484    0.6083    0.0369 C   0  0  0  0  0  4           0  0  0
    2.2693   -1.1141    0.0000 C   0  0  0  0  0  4           0  0  0
    2.2632    1.1180    0.0244 C   0  0  0  0  0  4           0  0  0
   -4.3278   -1.1571    7.7973 C   0  0  0  0  0  4           0  0  0
   -1.5639   -0.0522    4.0198 C   0  0  0  0  0  4           0  0  0
   -3.6057   -0.1101    7.1916 C   0  0  0  0  0  4           0  0  0
   -0.5425   -0.0000    1.3969 C   0  0  0  0  0  4           0  0  0
   -4.5872   -1.1034    9.1756 C   0  0  0  0  0  4           0  0  0
   -2.4345   -0.0243    2.9256 C   0  0  0  0  0  4           0  0  0
   -0.1828   -0.0560    3.7996 C   0  0  0  0  0  4           0  0  0
   -3.1221    0.9447    7.9826 C   0  0  0  0  0  4           0  0  0
   -1.9251    0.0000    1.6242 C   0  0  0  0  0  4           0  0  0
    0.3231   -0.0319    2.4977 C   0  0  0  0  0  4           0  0  0
   -4.1031   -0.0495    9.9503 C   0  0  0  0  0  4           0  0  0
   -3.3672    0.9697    9.3554 C   0  0  0  0  0  4           0  0  0
   -4.4265   -4.5988    8.1546 C   0  0  1  0  0  4           0  0  0
    1.6280    3.0314   -1.3797 C   0  0  0  0  0  4           0  0  0
   -3.3525   -0.0803    5.7309 C   0  0  0  0  0  4           0  0  0
    1.6604    4.9926   -2.6958 C   0  0  0  0  0  4           0  0  0
    0.0000    0.0000    0.0000 C   0  0  0  0  0  4           0  0  0
    1.7861   -2.5194   -0.0249 C   0  0  0  0  0  4           0  0  0
    1.7753    2.5197    0.0263 C   0  0  0  0  0  4           0  0  0
    2.5243   -3.4048    0.9744 C   0  0  0  0  0  4           0  0  0
    2.3931   -2.9587    2.4312 C   0  0  0  0  0  4           0  0  0
    3.1517   -3.8846    3.3680 C   0  0  0  0  0  4           0  0  0
  1 15  1  0     0  0
  2  6  2  0     0  0
  2  7  2  0     0  0
  2 13  1  0     0  0
  2 30  1  0     0  0
  3 30  1  0     0  0
  4 30  1  0     0  0
  5 30  1  0     0  0
  8 31  2  0     0  0
  9 32  2  0     0  0
 10 31  1  0     0  0
 10 33  1  0     0  0
 11 16  1  0     0  0
 11 17  1  0     0  0
 11 34  1  0     0  0
 12 15  1  0     0  0
 12 16  2  0     0  0
 13 18  1  0     0  0
 14 19  1  0     0  0
 14 32  1  0     0  0
 15 17  2  0     0  0
 16 35  1  0     0  0
 17 36  1  0     0  0
 18 20  1  0     0  0
 18 22  2  0     0  0
 19 23  2  0     0  0
 19 24  1  0     0  0
 20 25  2  0     0  0
 20 32  1  0     0  0
 21 26  2  0     0  0
 21 27  1  0     0  0
 21 34  1  0     0  0
 22 28  1  0     0  0
 23 26  1  0     0  0
 24 27  2  0     0  0
 25 29  1  0     0  0
 28 29  2  0     0  0
 31 36  1  0     0  0
 35 37  1  0     0  0
 37 38  1  0     0  0
 38 39  1  0     0  0
M  END
> <standard_type>
pIC50

> <# Confs.>
25

> <canonical_smiles>
ClC(N=C1CCCC)=C(CC(OC)=O)N1CC2=CC=C(NC(C3=CC=CC=C3NS(=O)(C(F)(F)F)=O)=O)C=C2

> <standard_relation>
=

> <Publication_ID>
nan

> <predicted_activity_value>
5.337242168318426

> <actual_activity_value>
6.301029995663981

> <Compound>
13

> <standard_units>
nM

> hash
2012092047828091155

$$$$
12
XXILIB    08252103513D 0   0.00000     0.00000

 39 41  0     1  0            999 V2000
    5.0031    1.4965    0.0707 Cl  0  0  0  0  0  1           0  0  0
   -6.0034   -1.7264    5.9424 S   0  0  1  0  0  6           0  0  0
   -6.5712   -2.5862    8.3219 F   0  0  0  0  0  1           0  0  0
   -8.2317   -1.6394    7.2658 F   0  0  0  0  0  1           0  0  0
   -7.5718   -3.6390    6.6945 F   0  0  0  0  0  1           0  0  0
   -6.7062   -1.5941    4.6804 O   0  0  0  0  0  2           0  0  0
   -4.7606   -2.4665    6.0358 O   0  0  0  0  0  2           0  0  0
    1.3577    2.3181   -2.3382 O   0  0  0  0  0  2           0  0  0
   -3.7411    1.5289    5.1790 O   0  0  0  0  0  2           0  0  0
    1.8079    4.3819   -1.4098 O   0  0  0  0  0  2           0  0  0
    1.4518    0.0000    0.0000 N   0  0  0  0  0  3           0  0  0
    3.5392   -0.7614    0.0216 N   0  0  0  0  0  3           0  0  0
   -5.7972   -0.1828    6.6578 N   0  0  0  0  0  3           0  0  0
   -2.0905   -0.0900    5.3244 N   0  0  0  0  0  3           0  0  0
    3.5484    0.6083    0.0369 C   0  0  0  0  0  4           0  0  0
    2.2693   -1.1141    0.0000 C   0  0  0  0  0  4           0  0  0
    2.2632    1.1180    0.0244 C   0  0  0  0  0  4           0  0  0
   -4.7598    0.0383    7.6295 C   0  0  0  0  0  4           0  0  0
   -1.5976   -0.0351    4.0067 C   0  0  0  0  0  4           0  0  0
   -3.4715    0.4578    7.2438 C   0  0  0  0  0  4           0  0  0
   -0.5425    0.0000    1.3969 C   0  0  0  0  0  4           0  0  0
   -5.0539   -0.1055    8.9943 C   0  0  0  0  0  4           0  0  0
   -2.1202    0.8385    3.0477 C   0  0  0  0  0  4           0  0  0
   -0.5488   -0.8918    3.6575 C   0  0  0  0  0  4           0  0  0
   -2.4938    0.6824    8.2266 C   0  0  0  0  0  4           0  0  0
   -1.5957    0.8531    1.7521 C   0  0  0  0  0  4           0  0  0
   -0.0270   -0.8750    2.3618 C   0  0  0  0  0  4           0  0  0
   -4.0750    0.1223    9.9612 C   0  0  0  0  0  4           0  0  0
   -2.7958    0.5102    9.5773 C   0  0  0  0  0  4           0  0  0
   -7.1372   -2.4217    7.1018 C   0  0  1  0  0  4           0  0  0
    1.6280    3.0314   -1.3797 C   0  0  0  0  0  4           0  0  0
   -3.1187    0.6859    5.8217 C   0  0  0  0  0  4           0  0  0
    1.6604    4.9926   -2.6958 C   0  0  0  0  0  4           0  0  0
    0.0000    0.0000   -0.0000 C   0  0  0  0  0  4           0  0  0
    1.7861   -2.5194   -0.0249 C   0  0  0  0  0  4           0  0  0
    1.7753    2.5197    0.0263 C   0  0  0  0  0  4           0  0  0
    2.5571   -3.3807   -1.0206 C   0  0  0  0  0  4           0  0  0
    2.4738   -2.8995   -2.4697 C   0  0  0  0  0  4           0  0  0
    3.2632   -3.8027   -3.4030 C   0  0  0  0  0  4           0  0  0
  1 15  1  0     0  0
  2  6  2  0     0  0
  2  7  2  0     0  0
  2 13  1  0     0  0
  2 30  1  0     0  0
  3 30  1  0     0  0
  4 30  1  0     0  0
  5 30  1  0     0  0
  8 31  2  0     0  0
  9 32  2  0     0  0
 10 31  1  0     0  0
 10 33  1  0     0  0
 11 16  1  0     0  0
 11 17  1  0     0  0
 11 34  1  0     0  0
 12 15  1  0     0  0
 12 16  2  0     0  0
 13 18  1  0     0  0
 14 19  1  0     0  0
 14 32  1  0     0  0
 15 17  2  0     0  0
 16 35  1  0     0  0
 17 36  1  0     0  0
 18 20  1  0     0  0
 18 22  2  0     0  0
 19 23  2  0     0  0
 19 24  1  0     0  0
 20 25  2  0     0  0
 20 32  1  0     0  0
 21 26  2  0     0  0
 21 27  1  0     0  0
 21 34  1  0     0  0
 22 28  1  0     0  0
 23 26  1  0     0  0
 24 27  2  0     0  0
 25 29  1  0     0  0
 28 29  2  0     0  0
 31 36  1  0     0  0
 35 37  1  0     0  0
 37 38  1  0     0  0
 38 39  1  0     0  0
M  END
> <standard_type>
pIC50

> <# Confs.>
25

> <canonical_smiles>
ClC(N=C1CCCC)=C(CC(OC)=O)N1CC2=CC=C(NC(C3=CC=CC=C3NS(=O)(C(F)(F)F)=O)=O)C=C2

> <standard_relation>
=

> <Publication_ID>
nan

> <predicted_activity_value>
5.337242168318426

> <actual_activity_value>
6.301029995663981

> <Compound>
13

> <standard_units>
nM

> hash
2012092047828091155

$$$$
12
XXILIB    08252103513D 0   0.00000     0.00000

 39 41  0     1  0            999 V2000
    5.0031   -1.4965   -0.0707 Cl  0  0  0  0  0  1           0  0  0
   -3.9250   -3.6566    6.7496 S   0  0  1  0  0  6           0  0  0
   -4.0167   -4.0297    9.3140 F   0  0  0  0  0  1           0  0  0
   -5.7743   -4.7251    8.2202 F   0  0  0  0  0  1           0  0  0
   -3.9079   -5.8503    8.1175 F   0  0  0  0  0  1           0  0  0
   -4.4114   -4.3493    5.5717 O   0  0  0  0  0  2           0  0  0
   -2.5198   -3.3368    6.9061 O   0  0  0  0  0  2           0  0  0
    2.3197   -2.6529    2.3171 O   0  0  0  0  0  2           0  0  0
   -4.3086   -0.0590    4.9586 O   0  0  0  0  0  2           0  0  0
    0.6100   -3.9349    1.4470 O   0  0  0  0  0  2           0  0  0
    1.4518    0.0000    0.0000 N   0  0  0  0  0  3           0  0  0
    3.5392    0.7614   -0.0216 N   0  0  0  0  0  3           0  0  0
   -4.8594   -2.2461    7.0220 N   0  0  0  0  0  3           0  0  0
   -2.0254   -0.0786    5.3497 N   0  0  0  0  0  3           0  0  0
    3.5484   -0.6083   -0.0369 C   0  0  0  0  0  4           0  0  0
    2.2693    1.1141    0.0000 C   0  0  0  0  0  4           0  0  0
    2.2632   -1.1180   -0.0244 C   0  0  0  0  0  4           0  0  0
   -4.3278   -1.1571    7.7973 C   0  0  0  0  0  4           0  0  0
   -1.5639   -0.0522    4.0198 C   0  0  0  0  0  4           0  0  0
   -3.6057   -0.1101    7.1916 C   0  0  0  0  0  4           0  0  0
   -0.5425   -0.0000    1.3969 C   0  0  0  0  0  4           0  0  0
   -4.5872   -1.1034    9.1756 C   0  0  0  0  0  4           0  0  0
   -2.4345   -0.0243    2.9256 C   0  0  0  0  0  4           0  0  0
   -0.1828   -0.0560    3.7996 C   0  0  0  0  0  4           0  0  0
   -3.1221    0.9447    7.9826 C   0  0  0  0  0  4           0  0  0
   -1.9251    0.0000    1.6242 C   0  0  0  0  0  4           0  0  0
    0.3231   -0.0319    2.4977 C   0  0  0  0  0  4           0  0  0
   -4.1031   -0.0495    9.9503 C   0  0  0  0  0  4           0  0  0
   -3.3672    0.9697    9.3554 C   0  0  0  0  0  4           0  0  0
   -4.4265   -4.5988    8.1546 C   0  0  1  0  0  4           0  0  0
    1.6280   -3.0314    1.3797 C   0  0  0  0  0  4           0  0  0
   -3.3525   -0.0803    5.7309 C   0  0  0  0  0  4           0  0  0
    0.3509   -4.4724    2.7479 C   0  0  0  0  0  4           0  0  0
    0.0000    0.0000    0.0000 C   0  0  0  0  0  4           0  0  0
    1.7861    2.5194    0.0249 C   0  0  0  0  0  4           0  0  0
    1.7753   -2.5197   -0.0263 C   0  0  0  0  0  4           0  0  0
    2.5571    3.3807    1.0206 C   0  0  0  0  0  4           0  0  0
    2.4738    2.8995    2.4697 C   0  0  0  0  0  4           0  0  0
    3.2632    3.8027    3.4030 C   0  0  0  0  0  4           0  0  0
  1 15  1  0     0  0
  2  6  2  0     0  0
  2  7  2  0     0  0
  2 13  1  0     0  0
  2 30  1  0     0  0
  3 30  1  0     0  0
  4 30  1  0     0  0
  5 30  1  0     0  0
  8 31  2  0     0  0
  9 32  2  0     0  0
 10 31  1  0     0  0
 10 33  1  0     0  0
 11 16  1  0     0  0
 11 17  1  0     0  0
 11 34  1  0     0  0
 12 15  1  0     0  0
 12 16  2  0     0  0
 13 18  1  0     0  0
 14 19  1  0     0  0
 14 32  1  0     0  0
 15 17  2  0     0  0
 16 35  1  0     0  0
 17 36  1  0     0  0
 18 20  1  0     0  0
 18 22  2  0     0  0
 19 23  2  0     0  0
 19 24  1  0     0  0
 20 25  2  0     0  0
 20 32  1  0     0  0
 21 26  2  0     0  0
 21 27  1  0     0  0
 21 34  1  0     0  0
 22 28  1  0     0  0
 23 26  1  0     0  0
 24 27  2  0     0  0
 25 29  1  0     0  0
 28 29  2  0     0  0
 31 36  1  0     0  0
 35 37  1  0     0  0
 37 38  1  0     0  0
 38 39  1  0     0  0
M  END
> <standard_type>
pIC50

> <# Confs.>
25

> <canonical_smiles>
ClC(N=C1CCCC)=C(CC(OC)=O)N1CC2=CC=C(NC(C3=CC=CC=C3NS(=O)(C(F)(F)F)=O)=O)C=C2

> <standard_relation>
=

> <Publication_ID>
nan

> <predicted_activity_value>
5.337242168318426

> <actual_activity_value>
6.301029995663981

> <Compound>
13

> <standard_units>
nM

> hash
2012092047828091155

$$$$
12
XXILIB    08252103513D 0   0.00000     0.00000

 39 41  0     1  0            999 V2000
    5.0031   -1.4965   -0.0707 Cl  0  0  0  0  0  1           0  0  0
   -3.9250   -3.6566    6.7496 S   0  0  1  0  0  6           0  0  0
   -4.0167   -4.0297    9.3140 F   0  0  0  0  0  1           0  0  0
   -5.7743   -4.7251    8.2202 F   0  0  0  0  0  1           0  0  0
   -3.9079   -5.8503    8.1175 F   0  0  0  0  0  1           0  0  0
   -4.4114   -4.3493    5.5717 O   0  0  0  0  0  2           0  0  0
   -2.5198   -3.3368    6.9061 O   0  0  0  0  0  2           0  0  0
    1.2678   -2.2804   -2.3696 O   0  0  0  0  0  2           0  0  0
   -4.3086   -0.0590    4.9586 O   0  0  0  0  0  2           0  0  0
    1.8112   -4.3490   -1.5040 O   0  0  0  0  0  2           0  0  0
    1.4518    0.0000   -0.0000 N   0  0  0  0  0  3           0  0  0
    3.5392    0.7614   -0.0216 N   0  0  0  0  0  3           0  0  0
   -4.8594   -2.2461    7.0220 N   0  0  0  0  0  3           0  0  0
   -2.0254   -0.0786    5.3497 N   0  0  0  0  0  3           0  0  0
    3.5484   -0.6083   -0.0369 C   0  0  0  0  0  4           0  0  0
    2.2693    1.1141    0.0000 C   0  0  0  0  0  4           0  0  0
    2.2632   -1.1180   -0.0244 C   0  0  0  0  0  4           0  0  0
   -4.3278   -1.1571    7.7973 C   0  0  0  0  0  4           0  0  0
   -1.5639   -0.0522    4.0198 C   0  0  0  0  0  4           0  0  0
   -3.6057   -0.1101    7.1916 C   0  0  0  0  0  4           0  0  0
   -0.5425   -0.0000    1.3969 C   0  0  0  0  0  4           0  0  0
   -4.5872   -1.1034    9.1756 C   0  0  0  0  0  4           0  0  0
   -2.4345   -0.0243    2.9256 C   0  0  0  0  0  4           0  0  0
   -0.1828   -0.0560    3.7996 C   0  0  0  0  0  4           0  0  0
   -3.1221    0.9447    7.9826 C   0  0  0  0  0  4           0  0  0
   -1.9251    0.0000    1.6242 C   0  0  0  0  0  4           0  0  0
    0.3231   -0.0319    2.4977 C   0  0  0  0  0  4           0  0  0
   -4.1031   -0.0495    9.9503 C   0  0  0  0  0  4           0  0  0
   -3.3672    0.9697    9.3554 C   0  0  0  0  0  4           0  0  0
   -4.4265   -4.5988    8.1546 C   0  0  1  0  0  4           0  0  0
    1.5743   -3.0089   -1.4337 C   0  0  0  0  0  4           0  0  0
   -3.3525   -0.0803    5.7309 C   0  0  0  0  0  4           0  0  0
    1.6817   -4.9282   -2.8064 C   0  0  0  0  0  4           0  0  0
    0.0000    0.0000    0.0000 C   0  0  0  0  0  4           0  0  0
    1.7861    2.5194    0.0249 C   0  0  0  0  0  4           0  0  0
    1.7753   -2.5197   -0.0263 C   0  0  0  0  0  4           0  0  0
    1.6206    3.0511    1.4453 C   0  0  0  0  0  4           0  0  0
    1.1246    4.4954    1.5256 C   0  0  0  0  0  4           0  0  0
    0.9836    4.9568    2.9670 C   0  0  0  0  0  4           0  0  0
  1 15  1  0     0  0
  2  6  2  0     0  0
  2  7  2  0     0  0
  2 13  1  0     0  0
  2 30  1  0     0  0
  3 30  1  0     0  0
  4 30  1  0     0  0
  5 30  1  0     0  0
  8 31  2  0     0  0
  9 32  2  0     0  0
 10 31  1  0     0  0
 10 33  1  0     0  0
 11 16  1  0     0  0
 11 17  1  0     0  0
 11 34  1  0     0  0
 12 15  1  0     0  0
 12 16  2  0     0  0
 13 18  1  0     0  0
 14 19  1  0     0  0
 14 32  1  0     0  0
 15 17  2  0     0  0
 16 35  1  0     0  0
 17 36  1  0     0  0
 18 20  1  0     0  0
 18 22  2  0     0  0
 19 23  2  0     0  0
 19 24  1  0     0  0
 20 25  2  0     0  0
 20 32  1  0     0  0
 21 26  2  0     0  0
 21 27  1  0     0  0
 21 34  1  0     0  0
 22 28  1  0     0  0
 23 26  1  0     0  0
 24 27  2  0     0  0
 25 29  1  0     0  0
 28 29  2  0     0  0
 31 36  1  0     0  0
 35 37  1  0     0  0
 37 38  1  0     0  0
 38 39  1  0     0  0
M  END
> <standard_type>
pIC50

> <# Confs.>
25

> <canonical_smiles>
ClC(N=C1CCCC)=C(CC(OC)=O)N1CC2=CC=C(NC(C3=CC=CC=C3NS(=O)(C(F)(F)F)=O)=O)C=C2

> <standard_relation>
=

> <Publication_ID>
nan

> <predicted_activity_value>
5.337242168318426

> <actual_activity_value>
6.301029995663981

> <Compound>
13

> <standard_units>
nM

> hash
2012092047828091155

$$$$
12
XXILIB    08252103513D 0   0.00000     0.00000

 39 41  0     1  0            999 V2000
    5.0031    1.4965    0.0707 Cl  0  0  0  0  0  1           0  0  0
   -3.9250   -3.6566    6.7496 S   0  0  1  0  0  6           0  0  0
   -4.0167   -4.0297    9.3140 F   0  0  0  0  0  1           0  0  0
   -5.7743   -4.7251    8.2202 F   0  0  0  0  0  1           0  0  0
   -3.9079   -5.8503    8.1175 F   0  0  0  0  0  1           0  0  0
   -4.4114   -4.3493    5.5717 O   0  0  0  0  0  2           0  0  0
   -2.5198   -3.3368    6.9061 O   0  0  0  0  0  2           0  0  0
    1.8816    2.3652   -2.3759 O   0  0  0  0  0  2           0  0  0
   -4.3086   -0.0590    4.9586 O   0  0  0  0  0  2           0  0  0
    1.1513    4.3080   -1.3679 O   0  0  0  0  0  2           0  0  0
    1.4518    0.0000    0.0000 N   0  0  0  0  0  3           0  0  0
    3.5392   -0.7614    0.0216 N   0  0  0  0  0  3           0  0  0
   -4.8594   -2.2461    7.0220 N   0  0  0  0  0  3           0  0  0
   -2.0254   -0.0786    5.3497 N   0  0  0  0  0  3           0  0  0
    3.5484    0.6083    0.0369 C   0  0  0  0  0  4           0  0  0
    2.2693   -1.1141    0.0000 C   0  0  0  0  0  4           0  0  0
    2.2632    1.1180    0.0244 C   0  0  0  0  0  4           0  0  0
   -4.3278   -1.1571    7.7973 C   0  0  0  0  0  4           0  0  0
   -1.5639   -0.0522    4.0198 C   0  0  0  0  0  4           0  0  0
   -3.6057   -0.1101    7.1916 C   0  0  0  0  0  4           0  0  0
   -0.5425   -0.0000    1.3969 C   0  0  0  0  0  4           0  0  0
   -4.5872   -1.1034    9.1756 C   0  0  0  0  0  4           0  0  0
   -2.4345   -0.0243    2.9256 C   0  0  0  0  0  4           0  0  0
   -0.1828   -0.0560    3.7996 C   0  0  0  0  0  4           0  0  0
   -3.1221    0.9447    7.9826 C   0  0  0  0  0  4           0  0  0
   -1.9251    0.0000    1.6242 C   0  0  0  0  0  4           0  0  0
    0.3231   -0.0319    2.4977 C   0  0  0  0  0  4           0  0  0
   -4.1031   -0.0495    9.9503 C   0  0  0  0  0  4           0  0  0
   -3.3672    0.9697    9.3554 C   0  0  0  0  0  4           0  0  0
   -4.4265   -4.5988    8.1546 C   0  0  1  0  0  4           0  0  0
    1.6280    3.0314   -1.3797 C   0  0  0  0  0  4           0  0  0
   -3.3525   -0.0803    5.7309 C   0  0  0  0  0  4           0  0  0
    0.9381    4.8959   -2.6553 C   0  0  0  0  0  4           0  0  0
    0.0000    0.0000    0.0000 C   0  0  0  0  0  4           0  0  0
    1.7861   -2.5194   -0.0249 C   0  0  0  0  0  4           0  0  0
    1.7753    2.5197    0.0263 C   0  0  0  0  0  4           0  0  0
    1.6206   -3.0511   -1.4453 C   0  0  0  0  0  4           0  0  0
    2.9061   -3.0516   -2.2736 C   0  0  0  0  0  4           0  0  0
    2.6667   -3.5928   -3.6736 C   0  0  0  0  0  4           0  0  0
  1 15  1  0     0  0
  2  6  2  0     0  0
  2  7  2  0     0  0
  2 13  1  0     0  0
  2 30  1  0     0  0
  3 30  1  0     0  0
  4 30  1  0     0  0
  5 30  1  0     0  0
  8 31  2  0     0  0
  9 32  2  0     0  0
 10 31  1  0     0  0
 10 33  1  0     0  0
 11 16  1  0     0  0
 11 17  1  0     0  0
 11 34  1  0     0  0
 12 15  1  0     0  0
 12 16  2  0     0  0
 13 18  1  0     0  0
 14 19  1  0     0  0
 14 32  1  0     0  0
 15 17  2  0     0  0
 16 35  1  0     0  0
 17 36  1  0     0  0
 18 20  1  0     0  0
 18 22  2  0     0  0
 19 23  2  0     0  0
 19 24  1  0     0  0
 20 25  2  0     0  0
 20 32  1  0     0  0
 21 26  2  0     0  0
 21 27  1  0     0  0
 21 34  1  0     0  0
 22 28  1  0     0  0
 23 26  1  0     0  0
 24 27  2  0     0  0
 25 29  1  0     0  0
 28 29  2  0     0  0
 31 36  1  0     0  0
 35 37  1  0     0  0
 37 38  1  0     0  0
 38 39  1  0     0  0
M  END
> <standard_type>
pIC50

> <# Confs.>
25

> <canonical_smiles>
ClC(N=C1CCCC)=C(CC(OC)=O)N1CC2=CC=C(NC(C3=CC=CC=C3NS(=O)(C(F)(F)F)=O)=O)C=C2

> <standard_relation>
=

> <Publication_ID>
nan

> <predicted_activity_value>
5.337242168318426

> <actual_activity_value>
6.301029995663981

> <Compound>
13

> <standard_units>
nM

> hash
2012092047828091155

$$$$
12
XXILIB    08252103513D 0   0.00000     0.00000

 39 41  0     1  0            999 V2000
    5.0031   -1.4965   -0.0707 Cl  0  0  0  0  0  1           0  0  0
   -3.9250   -3.6566    6.7496 S   0  0  1  0  0  6           0  0  0
   -4.0167   -4.0297    9.3140 F   0  0  0  0  0  1           0  0  0
   -5.7743   -4.7251    8.2202 F   0  0  0  0  0  1           0  0  0
   -3.9079   -5.8503    8.1175 F   0  0  0  0  0  1           0  0  0
   -4.4114   -4.3493    5.5717 O   0  0  0  0  0  2           0  0  0
   -2.5198   -3.3368    6.9061 O   0  0  0  0  0  2           0  0  0
    1.7899   -2.3268   -2.4281 O   0  0  0  0  0  2           0  0  0
   -4.3086   -0.0590    4.9586 O   0  0  0  0  0  2           0  0  0
    1.1553   -4.3056   -1.4254 O   0  0  0  0  0  2           0  0  0
    1.4518    0.0000   -0.0000 N   0  0  0  0  0  3           0  0  0
    3.5392    0.7614   -0.0216 N   0  0  0  0  0  3           0  0  0
   -4.8594   -2.2461    7.0220 N   0  0  0  0  0  3           0  0  0
   -2.0254   -0.0786    5.3497 N   0  0  0  0  0  3           0  0  0
    3.5484   -0.6083   -0.0369 C   0  0  0  0  0  4           0  0  0
    2.2693    1.1141    0.0000 C   0  0  0  0  0  4           0  0  0
    2.2632   -1.1180   -0.0244 C   0  0  0  0  0  4           0  0  0
   -4.3278   -1.1571    7.7973 C   0  0  0  0  0  4           0  0  0
   -1.5639   -0.0522    4.0198 C   0  0  0  0  0  4           0  0  0
   -3.6057   -0.1101    7.1916 C   0  0  0  0  0  4           0  0  0
   -0.5425   -0.0000    1.3969 C   0  0  0  0  0  4           0  0  0
   -4.5872   -1.1034    9.1756 C   0  0  0  0  0  4           0  0  0
   -2.4345   -0.0243    2.9256 C   0  0  0  0  0  4           0  0  0
   -0.1828   -0.0560    3.7996 C   0  0  0  0  0  4           0  0  0
   -3.1221    0.9447    7.9826 C   0  0  0  0  0  4           0  0  0
   -1.9251    0.0000    1.6242 C   0  0  0  0  0  4           0  0  0
    0.3231   -0.0319    2.4977 C   0  0  0  0  0  4           0  0  0
   -4.1031   -0.0495    9.9503 C   0  0  0  0  0  4           0  0  0
   -3.3672    0.9697    9.3554 C   0  0  0  0  0  4           0  0  0
   -4.4265   -4.5988    8.1546 C   0  0  1  0  0  4           0  0  0
    1.5743   -3.0089   -1.4337 C   0  0  0  0  0  4           0  0  0
   -3.3525   -0.0803    5.7309 C   0  0  0  0  0  4           0  0  0
    0.9584   -4.8957   -2.7144 C   0  0  0  0  0  4           0  0  0
    0.0000    0.0000    0.0000 C   0  0  0  0  0  4           0  0  0
    1.7861    2.5194    0.0249 C   0  0  0  0  0  4           0  0  0
    1.7753   -2.5197   -0.0263 C   0  0  0  0  0  4           0  0  0
    2.9315    3.5272    0.0183 C   0  0  0  0  0  4           0  0  0
    2.4862    4.9900    0.0433 C   0  0  0  0  0  4           0  0  0
    3.6767    5.9350    0.0351 C   0  0  0  0  0  4           0  0  0
  1 15  1  0     0  0
  2  6  2  0     0  0
  2  7  2  0     0  0
  2 13  1  0     0  0
  2 30  1  0     0  0
  3 30  1  0     0  0
  4 30  1  0     0  0
  5 30  1  0     0  0
  8 31  2  0     0  0
  9 32  2  0     0  0
 10 31  1  0     0  0
 10 33  1  0     0  0
 11 16  1  0     0  0
 11 17  1  0     0  0
 11 34  1  0     0  0
 12 15  1  0     0  0
 12 16  2  0     0  0
 13 18  1  0     0  0
 14 19  1  0     0  0
 14 32  1  0     0  0
 15 17  2  0     0  0
 16 35  1  0     0  0
 17 36  1  0     0  0
 18 20  1  0     0  0
 18 22  2  0     0  0
 19 23  2  0     0  0
 19 24  1  0     0  0
 20 25  2  0     0  0
 20 32  1  0     0  0
 21 26  2  0     0  0
 21 27  1  0     0  0
 21 34  1  0     0  0
 22 28  1  0     0  0
 23 26  1  0     0  0
 24 27  2  0     0  0
 25 29  1  0     0  0
 28 29  2  0     0  0
 31 36  1  0     0  0
 35 37  1  0     0  0
 37 38  1  0     0  0
 38 39  1  0     0  0
M  END
> <standard_type>
pIC50

> <# Confs.>
25

> <canonical_smiles>
ClC(N=C1CCCC)=C(CC(OC)=O)N1CC2=CC=C(NC(C3=CC=CC=C3NS(=O)(C(F)(F)F)=O)=O)C=C2

> <standard_relation>
=

> <Publication_ID>
nan

> <predicted_activity_value>
5.337242168318426

> <actual_activity_value>
6.301029995663981

> <Compound>
13

> <standard_units>
nM

> hash
2012092047828091155

$$$$
12
XXILIB    08252103513D 0   0.00000     0.00000

 39 41  0     1  0            999 V2000
    5.0031    1.4965    0.0707 Cl  0  0  0  0  0  1           0  0  0
   -3.9250   -3.6566    6.7496 S   0  0  1  0  0  6           0  0  0
   -4.0167   -4.0297    9.3140 F   0  0  0  0  0  1           0  0  0
   -5.7743   -4.7251    8.2202 F   0  0  0  0  0  1           0  0  0
   -3.9079   -5.8503    8.1175 F   0  0  0  0  0  1           0  0  0
   -4.4114   -4.3493    5.5717 O   0  0  0  0  0  2           0  0  0
   -2.5198   -3.3368    6.9061 O   0  0  0  0  0  2           0  0  0
    2.2299    2.6153    2.3907 O   0  0  0  0  0  2           0  0  0
   -4.3086   -0.0590    4.9586 O   0  0  0  0  0  2           0  0  0
    0.5947    3.9557    1.4669 O   0  0  0  0  0  2           0  0  0
    1.4518   -0.0000    0.0000 N   0  0  0  0  0  3           0  0  0
    3.5392   -0.7614    0.0216 N   0  0  0  0  0  3           0  0  0
   -4.8594   -2.2461    7.0220 N   0  0  0  0  0  3           0  0  0
   -2.0254   -0.0786    5.3497 N   0  0  0  0  0  3           0  0  0
    3.5484    0.6083    0.0369 C   0  0  0  0  0  4           0  0  0
    2.2693   -1.1141    0.0000 C   0  0  0  0  0  4           0  0  0
    2.2632    1.1180    0.0244 C   0  0  0  0  0  4           0  0  0
   -4.3278   -1.1571    7.7973 C   0  0  0  0  0  4           0  0  0
   -1.5639   -0.0522    4.0198 C   0  0  0  0  0  4           0  0  0
   -3.6057   -0.1101    7.1916 C   0  0  0  0  0  4           0  0  0
   -0.5425   -0.0000    1.3969 C   0  0  0  0  0  4           0  0  0
   -4.5872   -1.1034    9.1756 C   0  0  0  0  0  4           0  0  0
   -2.4345   -0.0243    2.9256 C   0  0  0  0  0  4           0  0  0
   -0.1828   -0.0560    3.7996 C   0  0  0  0  0  4           0  0  0
   -3.1221    0.9447    7.9826 C   0  0  0  0  0  4           0  0  0
   -1.9251    0.0000    1.6242 C   0  0  0  0  0  4           0  0  0
    0.3231   -0.0319    2.4977 C   0  0  0  0  0  4           0  0  0
   -4.1031   -0.0495    9.9503 C   0  0  0  0  0  4           0  0  0
   -3.3672    0.9697    9.3554 C   0  0  0  0  0  4           0  0  0
   -4.4265   -4.5988    8.1546 C   0  0  1  0  0  4           0  0  0
    1.5743    3.0089    1.4337 C   0  0  0  0  0  4           0  0  0
   -3.3525   -0.0803    5.7309 C   0  0  0  0  0  4           0  0  0
    0.3322    4.5229    2.7545 C   0  0  0  0  0  4           0  0  0
    0.0000    0.0000    0.0000 C   0  0  0  0  0  4           0  0  0
    1.7861   -2.5194   -0.0249 C   0  0  0  0  0  4           0  0  0
    1.7753    2.5197    0.0263 C   0  0  0  0  0  4           0  0  0
    1.6206   -3.0511   -1.4453 C   0  0  0  0  0  4           0  0  0
    1.1246   -4.4954   -1.5256 C   0  0  0  0  0  4           0  0  0
    0.9836   -4.9568   -2.9670 C   0  0  0  0  0  4           0  0  0
  1 15  1  0     0  0
  2  6  2  0     0  0
  2  7  2  0     0  0
  2 13  1  0     0  0
  2 30  1  0     0  0
  3 30  1  0     0  0
  4 30  1  0     0  0
  5 30  1  0     0  0
  8 31  2  0     0  0
  9 32  2  0     0  0
 10 31  1  0     0  0
 10 33  1  0     0  0
 11 16  1  0     0  0
 11 17  1  0     0  0
 11 34  1  0     0  0
 12 15  1  0     0  0
 12 16  2  0     0  0
 13 18  1  0     0  0
 14 19  1  0     0  0
 14 32  1  0     0  0
 15 17  2  0     0  0
 16 35  1  0     0  0
 17 36  1  0     0  0
 18 20  1  0     0  0
 18 22  2  0     0  0
 19 23  2  0     0  0
 19 24  1  0     0  0
 20 25  2  0     0  0
 20 32  1  0     0  0
 21 26  2  0     0  0
 21 27  1  0     0  0
 21 34  1  0     0  0
 22 28  1  0     0  0
 23 26  1  0     0  0
 24 27  2  0     0  0
 25 29  1  0     0  0
 28 29  2  0     0  0
 31 36  1  0     0  0
 35 37  1  0     0  0
 37 38  1  0     0  0
 38 39  1  0     0  0
M  END
> <standard_type>
pIC50

> <# Confs.>
25

> <canonical_smiles>
ClC(N=C1CCCC)=C(CC(OC)=O)N1CC2=CC=C(NC(C3=CC=CC=C3NS(=O)(C(F)(F)F)=O)=O)C=C2

> <standard_relation>
=

> <Publication_ID>
nan

> <predicted_activity_value>
5.337242168318426

> <actual_activity_value>
6.301029995663981

> <Compound>
13

> <standard_units>
nM

> hash
2012092047828091155

$$$$
12
XXILIB    08252103513D 0   0.00000     0.00000

 39 41  0     1  0            999 V2000
    5.0031    1.4965    0.0707 Cl  0  0  0  0  0  1           0  0  0
   -4.5069   -2.7963    6.1420 S   0  0  1  0  0  6           0  0  0
   -4.8507   -3.5826    8.5890 F   0  0  0  0  0  1           0  0  0
   -6.6371   -3.6688    7.3359 F   0  0  0  0  0  1           0  0  0
   -5.0502   -5.1438    7.0787 F   0  0  0  0  0  1           0  0  0
   -5.0480   -3.1469    4.8427 O   0  0  0  0  0  2           0  0  0
   -3.0799   -2.8283    6.3948 O   0  0  0  0  0  2           0  0  0
    1.3577    2.3181   -2.3382 O   0  0  0  0  0  2           0  0  0
   -3.7411    1.5289    5.1790 O   0  0  0  0  0  2           0  0  0
    1.8079    4.3819   -1.4098 O   0  0  0  0  0  2           0  0  0
    1.4518    0.0000    0.0000 N   0  0  0  0  0  3           0  0  0
    3.5392   -0.7614    0.0216 N   0  0  0  0  0  3           0  0  0
   -5.1362   -1.2837    6.6452 N   0  0  0  0  0  3           0  0  0
   -2.0905   -0.0900    5.3244 N   0  0  0  0  0  3           0  0  0
    3.5484    0.6083    0.0369 C   0  0  0  0  0  4           0  0  0
    2.2693   -1.1141    0.0000 C   0  0  0  0  0  4           0  0  0
    2.2632    1.1180    0.0244 C   0  0  0  0  0  4           0  0  0
   -4.4393   -0.4926    7.6239 C   0  0  0  0  0  4           0  0  0
   -1.5976   -0.0351    4.0067 C   0  0  0  0  0  4           0  0  0
   -3.4715    0.4578    7.2438 C   0  0  0  0  0  4           0  0  0
   -0.5425    0.0000    1.3969 C   0  0  0  0  0  4           0  0  0
   -4.7747   -0.6247    8.9803 C   0  0  0  0  0  4           0  0  0
   -2.1202    0.8385    3.0477 C   0  0  0  0  0  4           0  0  0
   -0.5488   -0.8918    3.6575 C   0  0  0  0  0  4           0  0  0
   -2.8296    1.2241    8.2302 C   0  0  0  0  0  4           0  0  0
   -1.5957    0.8531    1.7521 C   0  0  0  0  0  4           0  0  0
   -0.0270   -0.8750    2.3618 C   0  0  0  0  0  4           0  0  0
   -4.1316    0.1434    9.9505 C   0  0  0  0  0  4           0  0  0
   -3.1569    1.0621    9.5763 C   0  0  0  0  0  4           0  0  0
   -5.2920   -3.8348    7.3330 C   0  0  1  0  0  4           0  0  0
    1.6280    3.0314   -1.3797 C   0  0  0  0  0  4           0  0  0
   -3.1187    0.6859    5.8217 C   0  0  0  0  0  4           0  0  0
    1.6604    4.9926   -2.6958 C   0  0  0  0  0  4           0  0  0
    0.0000    0.0000    0.0000 C   0  0  0  0  0  4           0  0  0
    1.7861   -2.5194   -0.0249 C   0  0  0  0  0  4           0  0  0
    1.7753    2.5197    0.0263 C   0  0  0  0  0  4           0  0  0
    2.5571   -3.3807   -1.0206 C   0  0  0  0  0  4           0  0  0
    2.4738   -2.8995   -2.4697 C   0  0  0  0  0  4           0  0  0
    3.2632   -3.8027   -3.4030 C   0  0  0  0  0  4           0  0  0
  1 15  1  0     0  0
  2  6  2  0     0  0
  2  7  2  0     0  0
  2 13  1  0     0  0
  2 30  1  0     0  0
  3 30  1  0     0  0
  4 30  1  0     0  0
  5 30  1  0     0  0
  8 31  2  0     0  0
  9 32  2  0     0  0
 10 31  1  0     0  0
 10 33  1  0     0  0
 11 16  1  0     0  0
 11 17  1  0     0  0
 11 34  1  0     0  0
 12 15  1  0     0  0
 12 16  2  0     0  0
 13 18  1  0     0  0
 14 19  1  0     0  0
 14 32  1  0     0  0
 15 17  2  0     0  0
 16 35  1  0     0  0
 17 36  1  0     0  0
 18 20  1  0     0  0
 18 22  2  0     0  0
 19 23  2  0     0  0
 19 24  1  0     0  0
 20 25  2  0     0  0
 20 32  1  0     0  0
 21 26  2  0     0  0
 21 27  1  0     0  0
 21 34  1  0     0  0
 22 28  1  0     0  0
 23 26  1  0     0  0
 24 27  2  0     0  0
 25 29  1  0     0  0
 28 29  2  0     0  0
 31 36  1  0     0  0
 35 37  1  0     0  0
 37 38  1  0     0  0
 38 39  1  0     0  0
M  END
> <standard_type>
pIC50

> <# Confs.>
25

> <canonical_smiles>
ClC(N=C1CCCC)=C(CC(OC)=O)N1CC2=CC=C(NC(C3=CC=CC=C3NS(=O)(C(F)(F)F)=O)=O)C=C2

> <standard_relation>
=

> <Publication_ID>
nan

> <predicted_activity_value>
5.337242168318426

> <actual_activity_value>
6.301029995663981

> <Compound>
13

> <standard_units>
nM

> hash
2012092047828091155

$$$$
12
XXILIB    08252103513D 0   0.00000     0.00000

 39 41  0     1  0            999 V2000
    5.0031    1.4965    0.0707 Cl  0  0  0  0  0  1           0  0  0
   -6.0034   -1.7264    5.9424 S   0  0  1  0  0  6           0  0  0
   -6.5712   -2.5862    8.3219 F   0  0  0  0  0  1           0  0  0
   -8.2317   -1.6394    7.2658 F   0  0  0  0  0  1           0  0  0
   -7.5718   -3.6390    6.6945 F   0  0  0  0  0  1           0  0  0
   -6.7062   -1.5941    4.6804 O   0  0  0  0  0  2           0  0  0
   -4.7606   -2.4665    6.0358 O   0  0  0  0  0  2           0  0  0
    1.3577    2.3181   -2.3382 O   0  0  0  0  0  2           0  0  0
   -3.7411    1.5289    5.1790 O   0  0  0  0  0  2           0  0  0
    1.8079    4.3819   -1.4098 O   0  0  0  0  0  2           0  0  0
    1.4518    0.0000    0.0000 N   0  0  0  0  0  3           0  0  0
    3.5392   -0.7614    0.0216 N   0  0  0  0  0  3           0  0  0
   -5.7972   -0.1828    6.6578 N   0  0  0  0  0  3           0  0  0
   -2.0905   -0.0900    5.3244 N   0  0  0  0  0  3           0  0  0
    3.5484    0.6083    0.0369 C   0  0  0  0  0  4           0  0  0
    2.2693   -1.1141    0.0000 C   0  0  0  0  0  4           0  0  0
    2.2632    1.1180    0.0244 C   0  0  0  0  0  4           0  0  0
   -4.7598    0.0383    7.6295 C   0  0  0  0  0  4           0  0  0
   -1.5976   -0.0351    4.0067 C   0  0  0  0  0  4           0  0  0
   -3.4715    0.4578    7.2438 C   0  0  0  0  0  4           0  0  0
   -0.5425    0.0000    1.3969 C   0  0  0  0  0  4           0  0  0
   -5.0539   -0.1055    8.9943 C   0  0  0  0  0  4           0  0  0
   -2.1202    0.8385    3.0477 C   0  0  0  0  0  4           0  0  0
   -0.5488   -0.8918    3.6575 C   0  0  0  0  0  4           0  0  0
   -2.4938    0.6824    8.2266 C   0  0  0  0  0  4           0  0  0
   -1.5957    0.8531    1.7521 C   0  0  0  0  0  4           0  0  0
   -0.0270   -0.8750    2.3618 C   0  0  0  0  0  4           0  0  0
   -4.0750    0.1223    9.9612 C   0  0  0  0  0  4           0  0  0
   -2.7958    0.5102    9.5773 C   0  0  0  0  0  4           0  0  0
   -7.1372   -2.4217    7.1018 C   0  0  1  0  0  4           0  0  0
    1.6280    3.0314   -1.3797 C   0  0  0  0  0  4           0  0  0
   -3.1187    0.6859    5.8217 C   0  0  0  0  0  4           0  0  0
    1.6604    4.9926   -2.6958 C   0  0  0  0  0  4           0  0  0
    0.0000    0.0000   -0.0000 C   0  0  0  0  0  4           0  0  0
    1.7861   -2.5194   -0.0249 C   0  0  0  0  0  4           0  0  0
    1.7753    2.5197    0.0263 C   0  0  0  0  0  4           0  0  0
    1.6206   -3.0511   -1.4453 C   0  0  0  0  0  4           0  0  0
    1.1246   -4.4954   -1.5256 C   0  0  0  0  0  4           0  0  0
    0.9836   -4.9568   -2.9670 C   0  0  0  0  0  4           0  0  0
  1 15  1  0     0  0
  2  6  2  0     0  0
  2  7  2  0     0  0
  2 13  1  0     0  0
  2 30  1  0     0  0
  3 30  1  0     0  0
  4 30  1  0     0  0
  5 30  1  0     0  0
  8 31  2  0     0  0
  9 32  2  0     0  0
 10 31  1  0     0  0
 10 33  1  0     0  0
 11 16  1  0     0  0
 11 17  1  0     0  0
 11 34  1  0     0  0
 12 15  1  0     0  0
 12 16  2  0     0  0
 13 18  1  0     0  0
 14 19  1  0     0  0
 14 32  1  0     0  0
 15 17  2  0     0  0
 16 35  1  0     0  0
 17 36  1  0     0  0
 18 20  1  0     0  0
 18 22  2  0     0  0
 19 23  2  0     0  0
 19 24  1  0     0  0
 20 25  2  0     0  0
 20 32  1  0     0  0
 21 26  2  0     0  0
 21 27  1  0     0  0
 21 34  1  0     0  0
 22 28  1  0     0  0
 23 26  1  0     0  0
 24 27  2  0     0  0
 25 29  1  0     0  0
 28 29  2  0     0  0
 31 36  1  0     0  0
 35 37  1  0     0  0
 37 38  1  0     0  0
 38 39  1  0     0  0
M  END
> <standard_type>
pIC50

> <# Confs.>
25

> <canonical_smiles>
ClC(N=C1CCCC)=C(CC(OC)=O)N1CC2=CC=C(NC(C3=CC=CC=C3NS(=O)(C(F)(F)F)=O)=O)C=C2

> <standard_relation>
=

> <Publication_ID>
nan

> <predicted_activity_value>
5.337242168318426

> <actual_activity_value>
6.301029995663981

> <Compound>
13

> <standard_units>
nM

> hash
2012092047828091155

$$$$
12
XXILIB    08252103513D 0   0.00000     0.00000

 39 41  0     1  0            999 V2000
    5.0031    1.4965    0.0707 Cl  0  0  0  0  0  1           0  0  0
   -6.0034   -1.7264    5.9424 S   0  0  1  0  0  6           0  0  0
   -6.5712   -2.5862    8.3219 F   0  0  0  0  0  1           0  0  0
   -8.2317   -1.6394    7.2658 F   0  0  0  0  0  1           0  0  0
   -7.5718   -3.6390    6.6945 F   0  0  0  0  0  1           0  0  0
   -6.7062   -1.5941    4.6804 O   0  0  0  0  0  2           0  0  0
   -4.7606   -2.4665    6.0358 O   0  0  0  0  0  2           0  0  0
    1.3577    2.3181   -2.3382 O   0  0  0  0  0  2           0  0  0
   -3.7411    1.5289    5.1790 O   0  0  0  0  0  2           0  0  0
    1.8079    4.3819   -1.4098 O   0  0  0  0  0  2           0  0  0
    1.4518    0.0000    0.0000 N   0  0  0  0  0  3           0  0  0
    3.5392   -0.7614    0.0216 N   0  0  0  0  0  3           0  0  0
   -5.7972   -0.1828    6.6578 N   0  0  0  0  0  3           0  0  0
   -2.0905   -0.0900    5.3244 N   0  0  0  0  0  3           0  0  0
    3.5484    0.6083    0.0369 C   0  0  0  0  0  4           0  0  0
    2.2693   -1.1141    0.0000 C   0  0  0  0  0  4           0  0  0
    2.2632    1.1180    0.0244 C   0  0  0  0  0  4           0  0  0
   -4.7598    0.0383    7.6295 C   0  0  0  0  0  4           0  0  0
   -1.5976   -0.0351    4.0067 C   0  0  0  0  0  4           0  0  0
   -3.4715    0.4578    7.2438 C   0  0  0  0  0  4           0  0  0
   -0.5425    0.0000    1.3969 C   0  0  0  0  0  4           0  0  0
   -5.0539   -0.1055    8.9943 C   0  0  0  0  0  4           0  0  0
   -2.1202    0.8385    3.0477 C   0  0  0  0  0  4           0  0  0
   -0.5488   -0.8918    3.6575 C   0  0  0  0  0  4           0  0  0
   -2.4938    0.6824    8.2266 C   0  0  0  0  0  4           0  0  0
   -1.5957    0.8531    1.7521 C   0  0  0  0  0  4           0  0  0
   -0.0270   -0.8750    2.3618 C   0  0  0  0  0  4           0  0  0
   -4.0750    0.1223    9.9612 C   0  0  0  0  0  4           0  0  0
   -2.7958    0.5102    9.5773 C   0  0  0  0  0  4           0  0  0
   -7.1372   -2.4217    7.1018 C   0  0  1  0  0  4           0  0  0
    1.6280    3.0314   -1.3797 C   0  0  0  0  0  4           0  0  0
   -3.1187    0.6859    5.8217 C   0  0  0  0  0  4           0  0  0
    1.6604    4.9926   -2.6958 C   0  0  0  0  0  4           0  0  0
    0.0000    0.0000   -0.0000 C   0  0  0  0  0  4           0  0  0
    1.7861   -2.5194   -0.0249 C   0  0  0  0  0  4           0  0  0
    1.7753    2.5197    0.0263 C   0  0  0  0  0  4           0  0  0
    2.5243   -3.4048    0.9744 C   0  0  0  0  0  4           0  0  0
    2.0633   -4.8628    0.9879 C   0  0  0  0  0  4           0  0  0
    2.8402   -5.6835    2.0044 C   0  0  0  0  0  4           0  0  0
  1 15  1  0     0  0
  2  6  2  0     0  0
  2  7  2  0     0  0
  2 13  1  0     0  0
  2 30  1  0     0  0
  3 30  1  0     0  0
  4 30  1  0     0  0
  5 30  1  0     0  0
  8 31  2  0     0  0
  9 32  2  0     0  0
 10 31  1  0     0  0
 10 33  1  0     0  0
 11 16  1  0     0  0
 11 17  1  0     0  0
 11 34  1  0     0  0
 12 15  1  0     0  0
 12 16  2  0     0  0
 13 18  1  0     0  0
 14 19  1  0     0  0
 14 32  1  0     0  0
 15 17  2  0     0  0
 16 35  1  0     0  0
 17 36  1  0     0  0
 18 20  1  0     0  0
 18 22  2  0     0  0
 19 23  2  0     0  0
 19 24  1  0     0  0
 20 25  2  0     0  0
 20 32  1  0     0  0
 21 26  2  0     0  0
 21 27  1  0     0  0
 21 34  1  0     0  0
 22 28  1  0     0  0
 23 26  1  0     0  0
 24 27  2  0     0  0
 25 29  1  0     0  0
 28 29  2  0     0  0
 31 36  1  0     0  0
 35 37  1  0     0  0
 37 38  1  0     0  0
 38 39  1  0     0  0
M  END
> <standard_type>
pIC50

> <# Confs.>
25

> <canonical_smiles>
ClC(N=C1CCCC)=C(CC(OC)=O)N1CC2=CC=C(NC(C3=CC=CC=C3NS(=O)(C(F)(F)F)=O)=O)C=C2

> <standard_relation>
=

> <Publication_ID>
nan

> <predicted_activity_value>
5.337242168318426

> <actual_activity_value>
6.301029995663981

> <Compound>
13

> <standard_units>
nM

> hash
2012092047828091155

$$$$
12
XXILIB    08252103513D 0   0.00000     0.00000

 39 41  0     1  0            999 V2000
    5.0031    1.4965    0.0707 Cl  0  0  0  0  0  1           0  0  0
   -3.9250   -3.6566    6.7496 S   0  0  1  0  0  6           0  0  0
   -4.0167   -4.0297    9.3140 F   0  0  0  0  0  1           0  0  0
   -5.7743   -4.7251    8.2202 F   0  0  0  0  0  1           0  0  0
   -3.9079   -5.8503    8.1175 F   0  0  0  0  0  1           0  0  0
   -4.4114   -4.3493    5.5717 O   0  0  0  0  0  2           0  0  0
   -2.5198   -3.3368    6.9061 O   0  0  0  0  0  2           0  0  0
    1.3577    2.3181   -2.3382 O   0  0  0  0  0  2           0  0  0
   -4.3086   -0.0590    4.9586 O   0  0  0  0  0  2           0  0  0
    1.8079    4.3819   -1.4098 O   0  0  0  0  0  2           0  0  0
    1.4518    0.0000    0.0000 N   0  0  0  0  0  3           0  0  0
    3.5392   -0.7614    0.0216 N   0  0  0  0  0  3           0  0  0
   -4.8594   -2.2461    7.0220 N   0  0  0  0  0  3           0  0  0
   -2.0254   -0.0786    5.3497 N   0  0  0  0  0  3           0  0  0
    3.5484    0.6083    0.0369 C   0  0  0  0  0  4           0  0  0
    2.2693   -1.1141    0.0000 C   0  0  0  0  0  4           0  0  0
    2.2632    1.1180    0.0244 C   0  0  0  0  0  4           0  0  0
   -4.3278   -1.1571    7.7973 C   0  0  0  0  0  4           0  0  0
   -1.5639   -0.0522    4.0198 C   0  0  0  0  0  4           0  0  0
   -3.6057   -0.1101    7.1916 C   0  0  0  0  0  4           0  0  0
   -0.5425   -0.0000    1.3969 C   0  0  0  0  0  4           0  0  0
   -4.5872   -1.1034    9.1756 C   0  0  0  0  0  4           0  0  0
   -2.4345   -0.0243    2.9256 C   0  0  0  0  0  4           0  0  0
   -0.1828   -0.0560    3.7996 C   0  0  0  0  0  4           0  0  0
   -3.1221    0.9447    7.9826 C   0  0  0  0  0  4           0  0  0
   -1.9251    0.0000    1.6242 C   0  0  0  0  0  4           0  0  0
    0.3231   -0.0319    2.4977 C   0  0  0  0  0  4           0  0  0
   -4.1031   -0.0495    9.9503 C   0  0  0  0  0  4           0  0  0
   -3.3672    0.9697    9.3554 C   0  0  0  0  0  4           0  0  0
   -4.4265   -4.5988    8.1546 C   0  0  1  0  0  4           0  0  0
    1.6280    3.0314   -1.3797 C   0  0  0  0  0  4           0  0  0
   -3.3525   -0.0803    5.7309 C   0  0  0  0  0  4           0  0  0
    1.6604    4.9926   -2.6958 C   0  0  0  0  0  4           0  0  0
    0.0000    0.0000    0.0000 C   0  0  0  0  0  4           0  0  0
    1.7861   -2.5194   -0.0249 C   0  0  0  0  0  4           0  0  0
    1.7753    2.5197    0.0263 C   0  0  0  0  0  4           0  0  0
    1.5741   -3.0852    1.3760 C   0  0  0  0  0  4           0  0  0
    1.0763   -4.5308    1.4050 C   0  0  0  0  0  4           0  0  0
    0.8881   -5.0269    2.8294 C   0  0  0  0  0  4           0  0  0
  1 15  1  0     0  0
  2  6  2  0     0  0
  2  7  2  0     0  0
  2 13  1  0     0  0
  2 30  1  0     0  0
  3 30  1  0     0  0
  4 30  1  0     0  0
  5 30  1  0     0  0
  8 31  2  0     0  0
  9 32  2  0     0  0
 10 31  1  0     0  0
 10 33  1  0     0  0
 11 16  1  0     0  0
 11 17  1  0     0  0
 11 34  1  0     0  0
 12 15  1  0     0  0
 12 16  2  0     0  0
 13 18  1  0     0  0
 14 19  1  0     0  0
 14 32  1  0     0  0
 15 17  2  0     0  0
 16 35  1  0     0  0
 17 36  1  0     0  0
 18 20  1  0     0  0
 18 22  2  0     0  0
 19 23  2  0     0  0
 19 24  1  0     0  0
 20 25  2  0     0  0
 20 32  1  0     0  0
 21 26  2  0     0  0
 21 27  1  0     0  0
 21 34  1  0     0  0
 22 28  1  0     0  0
 23 26  1  0     0  0
 24 27  2  0     0  0
 25 29  1  0     0  0
 28 29  2  0     0  0
 31 36  1  0     0  0
 35 37  1  0     0  0
 37 38  1  0     0  0
 38 39  1  0     0  0
M  END
> <standard_type>
pIC50

> <# Confs.>
25

> <canonical_smiles>
ClC(N=C1CCCC)=C(CC(OC)=O)N1CC2=CC=C(NC(C3=CC=CC=C3NS(=O)(C(F)(F)F)=O)=O)C=C2

> <standard_relation>
=

> <Publication_ID>
nan

> <predicted_activity_value>
5.337242168318426

> <actual_activity_value>
6.301029995663981

> <Compound>
13

> <standard_units>
nM

> hash
2012092047828091155

$$$$
12
XXILIB    08252103513D 0   0.00000     0.00000

 39 41  0     1  0            999 V2000
    5.0031    1.4965    0.0707 Cl  0  0  0  0  0  1           0  0  0
   -3.9250   -3.6566    6.7496 S   0  0  1  0  0  6           0  0  0
   -4.0167   -4.0297    9.3140 F   0  0  0  0  0  1           0  0  0
   -5.7743   -4.7251    8.2202 F   0  0  0  0  0  1           0  0  0
   -3.9079   -5.8503    8.1175 F   0  0  0  0  0  1           0  0  0
   -4.4114   -4.3493    5.5717 O   0  0  0  0  0  2           0  0  0
   -2.5198   -3.3368    6.9061 O   0  0  0  0  0  2           0  0  0
    1.8816    2.3652   -2.3759 O   0  0  0  0  0  2           0  0  0
   -4.3086   -0.0590    4.9586 O   0  0  0  0  0  2           0  0  0
    1.1513    4.3080   -1.3679 O   0  0  0  0  0  2           0  0  0
    1.4518    0.0000    0.0000 N   0  0  0  0  0  3           0  0  0
    3.5392   -0.7614    0.0216 N   0  0  0  0  0  3           0  0  0
   -4.8594   -2.2461    7.0220 N   0  0  0  0  0  3           0  0  0
   -2.0254   -0.0786    5.3497 N   0  0  0  0  0  3           0  0  0
    3.5484    0.6083    0.0369 C   0  0  0  0  0  4           0  0  0
    2.2693   -1.1141    0.0000 C   0  0  0  0  0  4           0  0  0
    2.2632    1.1180    0.0244 C   0  0  0  0  0  4           0  0  0
   -4.3278   -1.1571    7.7973 C   0  0  0  0  0  4           0  0  0
   -1.5639   -0.0522    4.0198 C   0  0  0  0  0  4           0  0  0
   -3.6057   -0.1101    7.1916 C   0  0  0  0  0  4           0  0  0
   -0.5425   -0.0000    1.3969 C   0  0  0  0  0  4           0  0  0
   -4.5872   -1.1034    9.1756 C   0  0  0  0  0  4           0  0  0
   -2.4345   -0.0243    2.9256 C   0  0  0  0  0  4           0  0  0
   -0.1828   -0.0560    3.7996 C   0  0  0  0  0  4           0  0  0
   -3.1221    0.9447    7.9826 C   0  0  0  0  0  4           0  0  0
   -1.9251    0.0000    1.6242 C   0  0  0  0  0  4           0  0  0
    0.3231   -0.0319    2.4977 C   0  0  0  0  0  4           0  0  0
   -4.1031   -0.0495    9.9503 C   0  0  0  0  0  4           0  0  0
   -3.3672    0.9697    9.3554 C   0  0  0  0  0  4           0  0  0
   -4.4265   -4.5988    8.1546 C   0  0  1  0  0  4           0  0  0
    1.6280    3.0314   -1.3797 C   0  0  0  0  0  4           0  0  0
   -3.3525   -0.0803    5.7309 C   0  0  0  0  0  4           0  0  0
    0.9381    4.8959   -2.6553 C   0  0  0  0  0  4           0  0  0
    0.0000    0.0000    0.0000 C   0  0  0  0  0  4           0  0  0
    1.7861   -2.5194   -0.0249 C   0  0  0  0  0  4           0  0  0
    1.7753    2.5197    0.0263 C   0  0  0  0  0  4           0  0  0
    2.9315   -3.5272   -0.0183 C   0  0  0  0  0  4           0  0  0
    2.4862   -4.9900   -0.0433 C   0  0  0  0  0  4           0  0  0
    3.6767   -5.9350   -0.0351 C   0  0  0  0  0  4           0  0  0
  1 15  1  0     0  0
  2  6  2  0     0  0
  2  7  2  0     0  0
  2 13  1  0     0  0
  2 30  1  0     0  0
  3 30  1  0     0  0
  4 30  1  0     0  0
  5 30  1  0     0  0
  8 31  2  0     0  0
  9 32  2  0     0  0
 10 31  1  0     0  0
 10 33  1  0     0  0
 11 16  1  0     0  0
 11 17  1  0     0  0
 11 34  1  0     0  0
 12 15  1  0     0  0
 12 16  2  0     0  0
 13 18  1  0     0  0
 14 19  1  0     0  0
 14 32  1  0     0  0
 15 17  2  0     0  0
 16 35  1  0     0  0
 17 36  1  0     0  0
 18 20  1  0     0  0
 18 22  2  0     0  0
 19 23  2  0     0  0
 19 24  1  0     0  0
 20 25  2  0     0  0
 20 32  1  0     0  0
 21 26  2  0     0  0
 21 27  1  0     0  0
 21 34  1  0     0  0
 22 28  1  0     0  0
 23 26  1  0     0  0
 24 27  2  0     0  0
 25 29  1  0     0  0
 28 29  2  0     0  0
 31 36  1  0     0  0
 35 37  1  0     0  0
 37 38  1  0     0  0
 38 39  1  0     0  0
M  END
> <standard_type>
pIC50

> <# Confs.>
25

> <canonical_smiles>
ClC(N=C1CCCC)=C(CC(OC)=O)N1CC2=CC=C(NC(C3=CC=CC=C3NS(=O)(C(F)(F)F)=O)=O)C=C2

> <standard_relation>
=

> <Publication_ID>
nan

> <predicted_activity_value>
5.337242168318426

> <actual_activity_value>
6.301029995663981

> <Compound>
13

> <standard_units>
nM

> hash
2012092047828091155

$$$$
12
XXILIB    08252103513D 0   0.00000     0.00000

 39 41  0     1  0            999 V2000
    5.0031   -1.4965   -0.0707 Cl  0  0  0  0  0  1           0  0  0
   -6.0034   -1.7264    5.9424 S   0  0  1  0  0  6           0  0  0
   -6.5712   -2.5862    8.3219 F   0  0  0  0  0  1           0  0  0
   -8.2317   -1.6394    7.2658 F   0  0  0  0  0  1           0  0  0
   -7.5718   -3.6390    6.6945 F   0  0  0  0  0  1           0  0  0
   -6.7062   -1.5941    4.6804 O   0  0  0  0  0  2           0  0  0
   -4.7606   -2.4665    6.0358 O   0  0  0  0  0  2           0  0  0
    1.2678   -2.2804   -2.3696 O   0  0  0  0  0  2           0  0  0
   -3.7411    1.5289    5.1790 O   0  0  0  0  0  2           0  0  0
    1.8112   -4.3490   -1.5040 O   0  0  0  0  0  2           0  0  0
    1.4518    0.0000   -0.0000 N   0  0  0  0  0  3           0  0  0
    3.5392    0.7614   -0.0216 N   0  0  0  0  0  3           0  0  0
   -5.7972   -0.1828    6.6578 N   0  0  0  0  0  3           0  0  0
   -2.0905   -0.0900    5.3244 N   0  0  0  0  0  3           0  0  0
    3.5484   -0.6083   -0.0369 C   0  0  0  0  0  4           0  0  0
    2.2693    1.1141    0.0000 C   0  0  0  0  0  4           0  0  0
    2.2632   -1.1180   -0.0244 C   0  0  0  0  0  4           0  0  0
   -4.7598    0.0383    7.6295 C   0  0  0  0  0  4           0  0  0
   -1.5976   -0.0351    4.0067 C   0  0  0  0  0  4           0  0  0
   -3.4715    0.4578    7.2438 C   0  0  0  0  0  4           0  0  0
   -0.5425    0.0000    1.3969 C   0  0  0  0  0  4           0  0  0
   -5.0539   -0.1055    8.9943 C   0  0  0  0  0  4           0  0  0
   -2.1202    0.8385    3.0477 C   0  0  0  0  0  4           0  0  0
   -0.5488   -0.8918    3.6575 C   0  0  0  0  0  4           0  0  0
   -2.4938    0.6824    8.2266 C   0  0  0  0  0  4           0  0  0
   -1.5957    0.8531    1.7521 C   0  0  0  0  0  4           0  0  0
   -0.0270   -0.8750    2.3618 C   0  0  0  0  0  4           0  0  0
   -4.0750    0.1223    9.9612 C   0  0  0  0  0  4           0  0  0
   -2.7958    0.5102    9.5773 C   0  0  0  0  0  4           0  0  0
   -7.1372   -2.4217    7.1018 C   0  0  1  0  0  4           0  0  0
    1.5743   -3.0089   -1.4337 C   0  0  0  0  0  4           0  0  0
   -3.1187    0.6859    5.8217 C   0  0  0  0  0  4           0  0  0
    1.6817   -4.9282   -2.8064 C   0  0  0  0  0  4           0  0  0
    0.0000    0.0000   -0.0000 C   0  0  0  0  0  4           0  0  0
    1.7861    2.5194    0.0249 C   0  0  0  0  0  4           0  0  0
    1.7753   -2.5197   -0.0263 C   0  0  0  0  0  4           0  0  0
    1.5741    3.0852   -1.3760 C   0  0  0  0  0  4           0  0  0
    1.0763    4.5308   -1.4050 C   0  0  0  0  0  4           0  0  0
    0.8881    5.0269   -2.8294 C   0  0  0  0  0  4           0  0  0
  1 15  1  0     0  0
  2  6  2  0     0  0
  2  7  2  0     0  0
  2 13  1  0     0  0
  2 30  1  0     0  0
  3 30  1  0     0  0
  4 30  1  0     0  0
  5 30  1  0     0  0
  8 31  2  0     0  0
  9 32  2  0     0  0
 10 31  1  0     0  0
 10 33  1  0     0  0
 11 16  1  0     0  0
 11 17  1  0     0  0
 11 34  1  0     0  0
 12 15  1  0     0  0
 12 16  2  0     0  0
 13 18  1  0     0  0
 14 19  1  0     0  0
 14 32  1  0     0  0
 15 17  2  0     0  0
 16 35  1  0     0  0
 17 36  1  0     0  0
 18 20  1  0     0  0
 18 22  2  0     0  0
 19 23  2  0     0  0
 19 24  1  0     0  0
 20 25  2  0     0  0
 20 32  1  0     0  0
 21 26  2  0     0  0
 21 27  1  0     0  0
 21 34  1  0     0  0
 22 28  1  0     0  0
 23 26  1  0     0  0
 24 27  2  0     0  0
 25 29  1  0     0  0
 28 29  2  0     0  0
 31 36  1  0     0  0
 35 37  1  0     0  0
 37 38  1  0     0  0
 38 39  1  0     0  0
M  END
> <standard_type>
pIC50

> <# Confs.>
25

> <canonical_smiles>
ClC(N=C1CCCC)=C(CC(OC)=O)N1CC2=CC=C(NC(C3=CC=CC=C3NS(=O)(C(F)(F)F)=O)=O)C=C2

> <standard_relation>
=

> <Publication_ID>
nan

> <predicted_activity_value>
5.337242168318426

> <actual_activity_value>
6.301029995663981

> <Compound>
13

> <standard_units>
nM

> hash
2012092047828091155

$$$$
12
XXILIB    08252103513D 0   0.00000     0.00000

 39 41  0     1  0            999 V2000
    5.0031    1.4965    0.0707 Cl  0  0  0  0  0  1           0  0  0
   -4.5069   -2.7963    6.1420 S   0  0  1  0  0  6           0  0  0
   -4.8507   -3.5826    8.5890 F   0  0  0  0  0  1           0  0  0
   -6.6371   -3.6688    7.3359 F   0  0  0  0  0  1           0  0  0
   -5.0502   -5.1438    7.0787 F   0  0  0  0  0  1           0  0  0
   -5.0480   -3.1469    4.8427 O   0  0  0  0  0  2           0  0  0
   -3.0799   -2.8283    6.3948 O   0  0  0  0  0  2           0  0  0
    1.3577    2.3181   -2.3382 O   0  0  0  0  0  2           0  0  0
   -3.7411    1.5289    5.1790 O   0  0  0  0  0  2           0  0  0
    1.8079    4.3819   -1.4098 O   0  0  0  0  0  2           0  0  0
    1.4518    0.0000    0.0000 N   0  0  0  0  0  3           0  0  0
    3.5392   -0.7614    0.0216 N   0  0  0  0  0  3           0  0  0
   -5.1362   -1.2837    6.6452 N   0  0  0  0  0  3           0  0  0
   -2.0905   -0.0900    5.3244 N   0  0  0  0  0  3           0  0  0
    3.5484    0.6083    0.0369 C   0  0  0  0  0  4           0  0  0
    2.2693   -1.1141    0.0000 C   0  0  0  0  0  4           0  0  0
    2.2632    1.1180    0.0244 C   0  0  0  0  0  4           0  0  0
   -4.4393   -0.4926    7.6239 C   0  0  0  0  0  4           0  0  0
   -1.5976   -0.0351    4.0067 C   0  0  0  0  0  4           0  0  0
   -3.4715    0.4578    7.2438 C   0  0  0  0  0  4           0  0  0
   -0.5425    0.0000    1.3969 C   0  0  0  0  0  4           0  0  0
   -4.7747   -0.6247    8.9803 C   0  0  0  0  0  4           0  0  0
   -2.1202    0.8385    3.0477 C   0  0  0  0  0  4           0  0  0
   -0.5488   -0.8918    3.6575 C   0  0  0  0  0  4           0  0  0
   -2.8296    1.2241    8.2302 C   0  0  0  0  0  4           0  0  0
   -1.5957    0.8531    1.7521 C   0  0  0  0  0  4           0  0  0
   -0.0270   -0.8750    2.3618 C   0  0  0  0  0  4           0  0  0
   -4.1316    0.1434    9.9505 C   0  0  0  0  0  4           0  0  0
   -3.1569    1.0621    9.5763 C   0  0  0  0  0  4           0  0  0
   -5.2920   -3.8348    7.3330 C   0  0  1  0  0  4           0  0  0
    1.6280    3.0314   -1.3797 C   0  0  0  0  0  4           0  0  0
   -3.1187    0.6859    5.8217 C   0  0  0  0  0  4           0  0  0
    1.6604    4.9926   -2.6958 C   0  0  0  0  0  4           0  0  0
    0.0000    0.0000    0.0000 C   0  0  0  0  0  4           0  0  0
    1.7861   -2.5194   -0.0249 C   0  0  0  0  0  4           0  0  0
    1.7753    2.5197    0.0263 C   0  0  0  0  0  4           0  0  0
    1.6206   -3.0511   -1.4453 C   0  0  0  0  0  4           0  0  0
    1.1246   -4.4954   -1.5256 C   0  0  0  0  0  4           0  0  0
    0.9836   -4.9568   -2.9670 C   0  0  0  0  0  4           0  0  0
  1 15  1  0     0  0
  2  6  2  0     0  0
  2  7  2  0     0  0
  2 13  1  0     0  0
  2 30  1  0     0  0
  3 30  1  0     0  0
  4 30  1  0     0  0
  5 30  1  0     0  0
  8 31  2  0     0  0
  9 32  2  0     0  0
 10 31  1  0     0  0
 10 33  1  0     0  0
 11 16  1  0     0  0
 11 17  1  0     0  0
 11 34  1  0     0  0
 12 15  1  0     0  0
 12 16  2  0     0  0
 13 18  1  0     0  0
 14 19  1  0     0  0
 14 32  1  0     0  0
 15 17  2  0     0  0
 16 35  1  0     0  0
 17 36  1  0     0  0
 18 20  1  0     0  0
 18 22  2  0     0  0
 19 23  2  0     0  0
 19 24  1  0     0  0
 20 25  2  0     0  0
 20 32  1  0     0  0
 21 26  2  0     0  0
 21 27  1  0     0  0
 21 34  1  0     0  0
 22 28  1  0     0  0
 23 26  1  0     0  0
 24 27  2  0     0  0
 25 29  1  0     0  0
 28 29  2  0     0  0
 31 36  1  0     0  0
 35 37  1  0     0  0
 37 38  1  0     0  0
 38 39  1  0     0  0
M  END
> <standard_type>
pIC50

> <# Confs.>
25

> <canonical_smiles>
ClC(N=C1CCCC)=C(CC(OC)=O)N1CC2=CC=C(NC(C3=CC=CC=C3NS(=O)(C(F)(F)F)=O)=O)C=C2

> <standard_relation>
=

> <Publication_ID>
nan

> <predicted_activity_value>
5.337242168318426

> <actual_activity_value>
6.301029995663981

> <Compound>
13

> <standard_units>
nM

> hash
2012092047828091155

$$$$
12
XXILIB    08252103513D 0   0.00000     0.00000

 39 41  0     1  0            999 V2000
    5.0031    1.4965    0.0707 Cl  0  0  0  0  0  1           0  0  0
   -4.5069   -2.7963    6.1420 S   0  0  1  0  0  6           0  0  0
   -4.8507   -3.5826    8.5890 F   0  0  0  0  0  1           0  0  0
   -6.6371   -3.6688    7.3359 F   0  0  0  0  0  1           0  0  0
   -5.0502   -5.1438    7.0787 F   0  0  0  0  0  1           0  0  0
   -5.0480   -3.1469    4.8427 O   0  0  0  0  0  2           0  0  0
   -3.0799   -2.8283    6.3948 O   0  0  0  0  0  2           0  0  0
    1.3577    2.3181   -2.3382 O   0  0  0  0  0  2           0  0  0
   -3.7411    1.5289    5.1790 O   0  0  0  0  0  2           0  0  0
    1.8079    4.3819   -1.4098 O   0  0  0  0  0  2           0  0  0
    1.4518    0.0000    0.0000 N   0  0  0  0  0  3           0  0  0
    3.5392   -0.7614    0.0216 N   0  0  0  0  0  3           0  0  0
   -5.1362   -1.2837    6.6452 N   0  0  0  0  0  3           0  0  0
   -2.0905   -0.0900    5.3244 N   0  0  0  0  0  3           0  0  0
    3.5484    0.6083    0.0369 C   0  0  0  0  0  4           0  0  0
    2.2693   -1.1141    0.0000 C   0  0  0  0  0  4           0  0  0
    2.2632    1.1180    0.0244 C   0  0  0  0  0  4           0  0  0
   -4.4393   -0.4926    7.6239 C   0  0  0  0  0  4           0  0  0
   -1.5976   -0.0351    4.0067 C   0  0  0  0  0  4           0  0  0
   -3.4715    0.4578    7.2438 C   0  0  0  0  0  4           0  0  0
   -0.5425    0.0000    1.3969 C   0  0  0  0  0  4           0  0  0
   -4.7747   -0.6247    8.9803 C   0  0  0  0  0  4           0  0  0
   -2.1202    0.8385    3.0477 C   0  0  0  0  0  4           0  0  0
   -0.5488   -0.8918    3.6575 C   0  0  0  0  0  4           0  0  0
   -2.8296    1.2241    8.2302 C   0  0  0  0  0  4           0  0  0
   -1.5957    0.8531    1.7521 C   0  0  0  0  0  4           0  0  0
   -0.0270   -0.8750    2.3618 C   0  0  0  0  0  4           0  0  0
   -4.1316    0.1434    9.9505 C   0  0  0  0  0  4           0  0  0
   -3.1569    1.0621    9.5763 C   0  0  0  0  0  4           0  0  0
   -5.2920   -3.8348    7.3330 C   0  0  1  0  0  4           0  0  0
    1.6280    3.0314   -1.3797 C   0  0  0  0  0  4           0  0  0
   -3.1187    0.6859    5.8217 C   0  0  0  0  0  4           0  0  0
    1.6604    4.9926   -2.6958 C   0  0  0  0  0  4           0  0  0
    0.0000    0.0000    0.0000 C   0  0  0  0  0  4           0  0  0
    1.7861   -2.5194   -0.0249 C   0  0  0  0  0  4           0  0  0
    1.7753    2.5197    0.0263 C   0  0  0  0  0  4           0  0  0
    2.5243   -3.4048    0.9744 C   0  0  0  0  0  4           0  0  0
    2.0633   -4.8628    0.9879 C   0  0  0  0  0  4           0  0  0
    2.8402   -5.6835    2.0044 C   0  0  0  0  0  4           0  0  0
  1 15  1  0     0  0
  2  6  2  0     0  0
  2  7  2  0     0  0
  2 13  1  0     0  0
  2 30  1  0     0  0
  3 30  1  0     0  0
  4 30  1  0     0  0
  5 30  1  0     0  0
  8 31  2  0     0  0
  9 32  2  0     0  0
 10 31  1  0     0  0
 10 33  1  0     0  0
 11 16  1  0     0  0
 11 17  1  0     0  0
 11 34  1  0     0  0
 12 15  1  0     0  0
 12 16  2  0     0  0
 13 18  1  0     0  0
 14 19  1  0     0  0
 14 32  1  0     0  0
 15 17  2  0     0  0
 16 35  1  0     0  0
 17 36  1  0     0  0
 18 20  1  0     0  0
 18 22  2  0     0  0
 19 23  2  0     0  0
 19 24  1  0     0  0
 20 25  2  0     0  0
 20 32  1  0     0  0
 21 26  2  0     0  0
 21 27  1  0     0  0
 21 34  1  0     0  0
 22 28  1  0     0  0
 23 26  1  0     0  0
 24 27  2  0     0  0
 25 29  1  0     0  0
 28 29  2  0     0  0
 31 36  1  0     0  0
 35 37  1  0     0  0
 37 38  1  0     0  0
 38 39  1  0     0  0
M  END
> <standard_type>
pIC50

> <# Confs.>
25

> <canonical_smiles>
ClC(N=C1CCCC)=C(CC(OC)=O)N1CC2=CC=C(NC(C3=CC=CC=C3NS(=O)(C(F)(F)F)=O)=O)C=C2

> <standard_relation>
=

> <Publication_ID>
nan

> <predicted_activity_value>
5.337242168318426

> <actual_activity_value>
6.301029995663981

> <Compound>
13

> <standard_units>
nM

> hash
2012092047828091155

$$$$
12
XXILIB    08252103513D 0   0.00000     0.00000

 39 41  0     1  0            999 V2000
    5.0031   -1.4965   -0.0707 Cl  0  0  0  0  0  1           0  0  0
   -6.0034   -1.7264    5.9424 S   0  0  1  0  0  6           0  0  0
   -6.5712   -2.5862    8.3219 F   0  0  0  0  0  1           0  0  0
   -8.2317   -1.6394    7.2658 F   0  0  0  0  0  1           0  0  0
   -7.5718   -3.6390    6.6945 F   0  0  0  0  0  1           0  0  0
   -6.7062   -1.5941    4.6804 O   0  0  0  0  0  2           0  0  0
   -4.7606   -2.4665    6.0358 O   0  0  0  0  0  2           0  0  0
    1.2678   -2.2804   -2.3696 O   0  0  0  0  0  2           0  0  0
   -3.7411    1.5289    5.1790 O   0  0  0  0  0  2           0  0  0
    1.8112   -4.3490   -1.5040 O   0  0  0  0  0  2           0  0  0
    1.4518    0.0000   -0.0000 N   0  0  0  0  0  3           0  0  0
    3.5392    0.7614   -0.0216 N   0  0  0  0  0  3           0  0  0
   -5.7972   -0.1828    6.6578 N   0  0  0  0  0  3           0  0  0
   -2.0905   -0.0900    5.3244 N   0  0  0  0  0  3           0  0  0
    3.5484   -0.6083   -0.0369 C   0  0  0  0  0  4           0  0  0
    2.2693    1.1141    0.0000 C   0  0  0  0  0  4           0  0  0
    2.2632   -1.1180   -0.0244 C   0  0  0  0  0  4           0  0  0
   -4.7598    0.0383    7.6295 C   0  0  0  0  0  4           0  0  0
   -1.5976   -0.0351    4.0067 C   0  0  0  0  0  4           0  0  0
   -3.4715    0.4578    7.2438 C   0  0  0  0  0  4           0  0  0
   -0.5425    0.0000    1.3969 C   0  0  0  0  0  4           0  0  0
   -5.0539   -0.1055    8.9943 C   0  0  0  0  0  4           0  0  0
   -2.1202    0.8385    3.0477 C   0  0  0  0  0  4           0  0  0
   -0.5488   -0.8918    3.6575 C   0  0  0  0  0  4           0  0  0
   -2.4938    0.6824    8.2266 C   0  0  0  0  0  4           0  0  0
   -1.5957    0.8531    1.7521 C   0  0  0  0  0  4           0  0  0
   -0.0270   -0.8750    2.3618 C   0  0  0  0  0  4           0  0  0
   -4.0750    0.1223    9.9612 C   0  0  0  0  0  4           0  0  0
   -2.7958    0.5102    9.5773 C   0  0  0  0  0  4           0  0  0
   -7.1372   -2.4217    7.1018 C   0  0  1  0  0  4           0  0  0
    1.5743   -3.0089   -1.4337 C   0  0  0  0  0  4           0  0  0
   -3.1187    0.6859    5.8217 C   0  0  0  0  0  4           0  0  0
    1.6817   -4.9282   -2.8064 C   0  0  0  0  0  4           0  0  0
    0.0000    0.0000   -0.0000 C   0  0  0  0  0  4           0  0  0
    1.7861    2.5194    0.0249 C   0  0  0  0  0  4           0  0  0
    1.7753   -2.5197   -0.0263 C   0  0  0  0  0  4           0  0  0
    1.6206    3.0511    1.4453 C   0  0  0  0  0  4           0  0  0
    1.1246    4.4954    1.5256 C   0  0  0  0  0  4           0  0  0
    0.9836    4.9568    2.9670 C   0  0  0  0  0  4           0  0  0
  1 15  1  0     0  0
  2  6  2  0     0  0
  2  7  2  0     0  0
  2 13  1  0     0  0
  2 30  1  0     0  0
  3 30  1  0     0  0
  4 30  1  0     0  0
  5 30  1  0     0  0
  8 31  2  0     0  0
  9 32  2  0     0  0
 10 31  1  0     0  0
 10 33  1  0     0  0
 11 16  1  0     0  0
 11 17  1  0     0  0
 11 34  1  0     0  0
 12 15  1  0     0  0
 12 16  2  0     0  0
 13 18  1  0     0  0
 14 19  1  0     0  0
 14 32  1  0     0  0
 15 17  2  0     0  0
 16 35  1  0     0  0
 17 36  1  0     0  0
 18 20  1  0     0  0
 18 22  2  0     0  0
 19 23  2  0     0  0
 19 24  1  0     0  0
 20 25  2  0     0  0
 20 32  1  0     0  0
 21 26  2  0     0  0
 21 27  1  0     0  0
 21 34  1  0     0  0
 22 28  1  0     0  0
 23 26  1  0     0  0
 24 27  2  0     0  0
 25 29  1  0     0  0
 28 29  2  0     0  0
 31 36  1  0     0  0
 35 37  1  0     0  0
 37 38  1  0     0  0
 38 39  1  0     0  0
M  END
> <standard_type>
pIC50

> <# Confs.>
25

> <canonical_smiles>
ClC(N=C1CCCC)=C(CC(OC)=O)N1CC2=CC=C(NC(C3=CC=CC=C3NS(=O)(C(F)(F)F)=O)=O)C=C2

> <standard_relation>
=

> <Publication_ID>
nan

> <predicted_activity_value>
5.337242168318426

> <actual_activity_value>
6.301029995663981

> <Compound>
13

> <standard_units>
nM

> hash
2012092047828091155

$$$$
12
XXILIB    08252103513D 0   0.00000     0.00000

 39 41  0     1  0            999 V2000
    5.0031    1.4965    0.0707 Cl  0  0  0  0  0  1           0  0  0
   -6.8017   -0.0584    6.0118 S   0  0  1  0  0  6           0  0  0
   -7.6040   -0.8664    8.3415 F   0  0  0  0  0  1           0  0  0
   -8.6450    0.8911    7.5692 F   0  0  0  0  0  1           0  0  0
   -9.0636   -1.0808    6.7347 F   0  0  0  0  0  1           0  0  0
   -7.4101    0.5652    4.8521 O   0  0  0  0  0  2           0  0  0
   -6.0702   -1.3046    5.8973 O   0  0  0  0  0  2           0  0  0
    1.3577    2.3181   -2.3382 O   0  0  0  0  0  2           0  0  0
   -3.7411    1.5289    5.1790 O   0  0  0  0  0  2           0  0  0
    1.8079    4.3819   -1.4098 O   0  0  0  0  0  2           0  0  0
    1.4518    0.0000    0.0000 N   0  0  0  0  0  3           0  0  0
    3.5392   -0.7614    0.0216 N   0  0  0  0  0  3           0  0  0
   -5.8407    1.0861    6.8505 N   0  0  0  0  0  3           0  0  0
   -2.0905   -0.0900    5.3244 N   0  0  0  0  0  3           0  0  0
    3.5484    0.6083    0.0369 C   0  0  0  0  0  4           0  0  0
    2.2693   -1.1141    0.0000 C   0  0  0  0  0  4           0  0  0
    2.2632    1.1180    0.0244 C   0  0  0  0  0  4           0  0  0
   -4.7822    0.6511    7.7222 C   0  0  0  0  0  4           0  0  0
   -1.5976   -0.0351    4.0067 C   0  0  0  0  0  4           0  0  0
   -3.4715    0.4578    7.2438 C   0  0  0  0  0  4           0  0  0
   -0.5425    0.0000    1.3969 C   0  0  0  0  0  4           0  0  0
   -5.0457    0.4764    9.0897 C   0  0  0  0  0  4           0  0  0
   -2.1202    0.8385    3.0477 C   0  0  0  0  0  4           0  0  0
   -0.5488   -0.8918    3.6575 C   0  0  0  0  0  4           0  0  0
   -2.4630    0.0527    8.1332 C   0  0  0  0  0  4           0  0  0
   -1.5957    0.8531    1.7521 C   0  0  0  0  0  4           0  0  0
   -0.0270   -0.8750    2.3618 C   0  0  0  0  0  4           0  0  0
   -4.0354    0.0756    9.9635 C   0  0  0  0  0  4           0  0  0
   -2.7477   -0.1411    9.4848 C   0  0  0  0  0  4           0  0  0
   -8.0754   -0.2856    7.2117 C   0  0  1  0  0  4           0  0  0
    1.6280    3.0314   -1.3797 C   0  0  0  0  0  4           0  0  0
   -3.1187    0.6859    5.8217 C   0  0  0  0  0  4           0  0  0
    1.6604    4.9926   -2.6958 C   0  0  0  0  0  4           0  0  0
    0.0000    0.0000   -0.0000 C   0  0  0  0  0  4           0  0  0
    1.7861   -2.5194   -0.0249 C   0  0  0  0  0  4           0  0  0
    1.7753    2.5197    0.0263 C   0  0  0  0  0  4           0  0  0
    2.5571   -3.3807   -1.0206 C   0  0  0  0  0  4           0  0  0
    2.4738   -2.8995   -2.4697 C   0  0  0  0  0  4           0  0  0
    3.2632   -3.8027   -3.4030 C   0  0  0  0  0  4           0  0  0
  1 15  1  0     0  0
  2  6  2  0     0  0
  2  7  2  0     0  0
  2 13  1  0     0  0
  2 30  1  0     0  0
  3 30  1  0     0  0
  4 30  1  0     0  0
  5 30  1  0     0  0
  8 31  2  0     0  0
  9 32  2  0     0  0
 10 31  1  0     0  0
 10 33  1  0     0  0
 11 16  1  0     0  0
 11 17  1  0     0  0
 11 34  1  0     0  0
 12 15  1  0     0  0
 12 16  2  0     0  0
 13 18  1  0     0  0
 14 19  1  0     0  0
 14 32  1  0     0  0
 15 17  2  0     0  0
 16 35  1  0     0  0
 17 36  1  0     0  0
 18 20  1  0     0  0
 18 22  2  0     0  0
 19 23  2  0     0  0
 19 24  1  0     0  0
 20 25  2  0     0  0
 20 32  1  0     0  0
 21 26  2  0     0  0
 21 27  1  0     0  0
 21 34  1  0     0  0
 22 28  1  0     0  0
 23 26  1  0     0  0
 24 27  2  0     0  0
 25 29  1  0     0  0
 28 29  2  0     0  0
 31 36  1  0     0  0
 35 37  1  0     0  0
 37 38  1  0     0  0
 38 39  1  0     0  0
M  END
> <standard_type>
pIC50

> <# Confs.>
25

> <canonical_smiles>
ClC(N=C1CCCC)=C(CC(OC)=O)N1CC2=CC=C(NC(C3=CC=CC=C3NS(=O)(C(F)(F)F)=O)=O)C=C2

> <standard_relation>
=

> <Publication_ID>
nan

> <predicted_activity_value>
5.337242168318426

> <actual_activity_value>
6.301029995663981

> <Compound>
13

> <standard_units>
nM

> hash
2012092047828091155

$$$$
12
XXILIB    08252103513D 0   0.00000     0.00000

 39 41  0     1  0            999 V2000
    5.0031    1.4965    0.0707 Cl  0  0  0  0  0  1           0  0  0
   -3.9250   -3.6566    6.7496 S   0  0  1  0  0  6           0  0  0
   -4.0167   -4.0297    9.3140 F   0  0  0  0  0  1           0  0  0
   -5.7743   -4.7251    8.2202 F   0  0  0  0  0  1           0  0  0
   -3.9079   -5.8503    8.1175 F   0  0  0  0  0  1           0  0  0
   -4.4114   -4.3493    5.5717 O   0  0  0  0  0  2           0  0  0
   -2.5198   -3.3368    6.9061 O   0  0  0  0  0  2           0  0  0
    2.2299    2.6153    2.3907 O   0  0  0  0  0  2           0  0  0
   -4.3086   -0.0590    4.9586 O   0  0  0  0  0  2           0  0  0
    0.5947    3.9557    1.4669 O   0  0  0  0  0  2           0  0  0
    1.4518   -0.0000    0.0000 N   0  0  0  0  0  3           0  0  0
    3.5392   -0.7614    0.0216 N   0  0  0  0  0  3           0  0  0
   -4.8594   -2.2461    7.0220 N   0  0  0  0  0  3           0  0  0
   -2.0254   -0.0786    5.3497 N   0  0  0  0  0  3           0  0  0
    3.5484    0.6083    0.0369 C   0  0  0  0  0  4           0  0  0
    2.2693   -1.1141    0.0000 C   0  0  0  0  0  4           0  0  0
    2.2632    1.1180    0.0244 C   0  0  0  0  0  4           0  0  0
   -4.3278   -1.1571    7.7973 C   0  0  0  0  0  4           0  0  0
   -1.5639   -0.0522    4.0198 C   0  0  0  0  0  4           0  0  0
   -3.6057   -0.1101    7.1916 C   0  0  0  0  0  4           0  0  0
   -0.5425   -0.0000    1.3969 C   0  0  0  0  0  4           0  0  0
   -4.5872   -1.1034    9.1756 C   0  0  0  0  0  4           0  0  0
   -2.4345   -0.0243    2.9256 C   0  0  0  0  0  4           0  0  0
   -0.1828   -0.0560    3.7996 C   0  0  0  0  0  4           0  0  0
   -3.1221    0.9447    7.9826 C   0  0  0  0  0  4           0  0  0
   -1.9251    0.0000    1.6242 C   0  0  0  0  0  4           0  0  0
    0.3231   -0.0319    2.4977 C   0  0  0  0  0  4           0  0  0
   -4.1031   -0.0495    9.9503 C   0  0  0  0  0  4           0  0  0
   -3.3672    0.9697    9.3554 C   0  0  0  0  0  4           0  0  0
   -4.4265   -4.5988    8.1546 C   0  0  1  0  0  4           0  0  0
    1.5743    3.0089    1.4337 C   0  0  0  0  0  4           0  0  0
   -3.3525   -0.0803    5.7309 C   0  0  0  0  0  4           0  0  0
    0.3322    4.5229    2.7545 C   0  0  0  0  0  4           0  0  0
    0.0000    0.0000    0.0000 C   0  0  0  0  0  4           0  0  0
    1.7861   -2.5194   -0.0249 C   0  0  0  0  0  4           0  0  0
    1.7753    2.5197    0.0263 C   0  0  0  0  0  4           0  0  0
    2.5243   -3.4048    0.9744 C   0  0  0  0  0  4           0  0  0
    2.3931   -2.9587    2.4312 C   0  0  0  0  0  4           0  0  0
    3.1517   -3.8846    3.3680 C   0  0  0  0  0  4           0  0  0
  1 15  1  0     0  0
  2  6  2  0     0  0
  2  7  2  0     0  0
  2 13  1  0     0  0
  2 30  1  0     0  0
  3 30  1  0     0  0
  4 30  1  0     0  0
  5 30  1  0     0  0
  8 31  2  0     0  0
  9 32  2  0     0  0
 10 31  1  0     0  0
 10 33  1  0     0  0
 11 16  1  0     0  0
 11 17  1  0     0  0
 11 34  1  0     0  0
 12 15  1  0     0  0
 12 16  2  0     0  0
 13 18  1  0     0  0
 14 19  1  0     0  0
 14 32  1  0     0  0
 15 17  2  0     0  0
 16 35  1  0     0  0
 17 36  1  0     0  0
 18 20  1  0     0  0
 18 22  2  0     0  0
 19 23  2  0     0  0
 19 24  1  0     0  0
 20 25  2  0     0  0
 20 32  1  0     0  0
 21 26  2  0     0  0
 21 27  1  0     0  0
 21 34  1  0     0  0
 22 28  1  0     0  0
 23 26  1  0     0  0
 24 27  2  0     0  0
 25 29  1  0     0  0
 28 29  2  0     0  0
 31 36  1  0     0  0
 35 37  1  0     0  0
 37 38  1  0     0  0
 38 39  1  0     0  0
M  END
> <standard_type>
pIC50

> <# Confs.>
25

> <canonical_smiles>
ClC(N=C1CCCC)=C(CC(OC)=O)N1CC2=CC=C(NC(C3=CC=CC=C3NS(=O)(C(F)(F)F)=O)=O)C=C2

> <standard_relation>
=

> <Publication_ID>
nan

> <predicted_activity_value>
5.337242168318426

> <actual_activity_value>
6.301029995663981

> <Compound>
13

> <standard_units>
nM

> hash
2012092047828091155

$$$$
12
XXILIB    08252103513D 0   0.00000     0.00000

 39 41  0     1  0            999 V2000
    5.0031   -1.4965   -0.0707 Cl  0  0  0  0  0  1           0  0  0
   -3.9250   -3.6566    6.7496 S   0  0  1  0  0  6           0  0  0
   -4.0167   -4.0297    9.3140 F   0  0  0  0  0  1           0  0  0
   -5.7743   -4.7251    8.2202 F   0  0  0  0  0  1           0  0  0
   -3.9079   -5.8503    8.1175 F   0  0  0  0  0  1           0  0  0
   -4.4114   -4.3493    5.5717 O   0  0  0  0  0  2           0  0  0
   -2.5198   -3.3368    6.9061 O   0  0  0  0  0  2           0  0  0
    2.3197   -2.6529    2.3171 O   0  0  0  0  0  2           0  0  0
   -4.3086   -0.0590    4.9586 O   0  0  0  0  0  2           0  0  0
    0.6100   -3.9349    1.4470 O   0  0  0  0  0  2           0  0  0
    1.4518    0.0000    0.0000 N   0  0  0  0  0  3           0  0  0
    3.5392    0.7614   -0.0216 N   0  0  0  0  0  3           0  0  0
   -4.8594   -2.2461    7.0220 N   0  0  0  0  0  3           0  0  0
   -2.0254   -0.0786    5.3497 N   0  0  0  0  0  3           0  0  0
    3.5484   -0.6083   -0.0369 C   0  0  0  0  0  4           0  0  0
    2.2693    1.1141    0.0000 C   0  0  0  0  0  4           0  0  0
    2.2632   -1.1180   -0.0244 C   0  0  0  0  0  4           0  0  0
   -4.3278   -1.1571    7.7973 C   0  0  0  0  0  4           0  0  0
   -1.5639   -0.0522    4.0198 C   0  0  0  0  0  4           0  0  0
   -3.6057   -0.1101    7.1916 C   0  0  0  0  0  4           0  0  0
   -0.5425   -0.0000    1.3969 C   0  0  0  0  0  4           0  0  0
   -4.5872   -1.1034    9.1756 C   0  0  0  0  0  4           0  0  0
   -2.4345   -0.0243    2.9256 C   0  0  0  0  0  4           0  0  0
   -0.1828   -0.0560    3.7996 C   0  0  0  0  0  4           0  0  0
   -3.1221    0.9447    7.9826 C   0  0  0  0  0  4           0  0  0
   -1.9251    0.0000    1.6242 C   0  0  0  0  0  4           0  0  0
    0.3231   -0.0319    2.4977 C   0  0  0  0  0  4           0  0  0
   -4.1031   -0.0495    9.9503 C   0  0  0  0  0  4           0  0  0
   -3.3672    0.9697    9.3554 C   0  0  0  0  0  4           0  0  0
   -4.4265   -4.5988    8.1546 C   0  0  1  0  0  4           0  0  0
    1.6280   -3.0314    1.3797 C   0  0  0  0  0  4           0  0  0
   -3.3525   -0.0803    5.7309 C   0  0  0  0  0  4           0  0  0
    0.3509   -4.4724    2.7479 C   0  0  0  0  0  4           0  0  0
    0.0000    0.0000    0.0000 C   0  0  0  0  0  4           0  0  0
    1.7861    2.5194    0.0249 C   0  0  0  0  0  4           0  0  0
    1.7753   -2.5197   -0.0263 C   0  0  0  0  0  4           0  0  0
    2.5243    3.4048   -0.9744 C   0  0  0  0  0  4           0  0  0
    2.3931    2.9587   -2.4312 C   0  0  0  0  0  4           0  0  0
    3.1517    3.8846   -3.3680 C   0  0  0  0  0  4           0  0  0
  1 15  1  0     0  0
  2  6  2  0     0  0
  2  7  2  0     0  0
  2 13  1  0     0  0
  2 30  1  0     0  0
  3 30  1  0     0  0
  4 30  1  0     0  0
  5 30  1  0     0  0
  8 31  2  0     0  0
  9 32  2  0     0  0
 10 31  1  0     0  0
 10 33  1  0     0  0
 11 16  1  0     0  0
 11 17  1  0     0  0
 11 34  1  0     0  0
 12 15  1  0     0  0
 12 16  2  0     0  0
 13 18  1  0     0  0
 14 19  1  0     0  0
 14 32  1  0     0  0
 15 17  2  0     0  0
 16 35  1  0     0  0
 17 36  1  0     0  0
 18 20  1  0     0  0
 18 22  2  0     0  0
 19 23  2  0     0  0
 19 24  1  0     0  0
 20 25  2  0     0  0
 20 32  1  0     0  0
 21 26  2  0     0  0
 21 27  1  0     0  0
 21 34  1  0     0  0
 22 28  1  0     0  0
 23 26  1  0     0  0
 24 27  2  0     0  0
 25 29  1  0     0  0
 28 29  2  0     0  0
 31 36  1  0     0  0
 35 37  1  0     0  0
 37 38  1  0     0  0
 38 39  1  0     0  0
M  END
> <standard_type>
pIC50

> <# Confs.>
25

> <canonical_smiles>
ClC(N=C1CCCC)=C(CC(OC)=O)N1CC2=CC=C(NC(C3=CC=CC=C3NS(=O)(C(F)(F)F)=O)=O)C=C2

> <standard_relation>
=

> <Publication_ID>
nan

> <predicted_activity_value>
5.337242168318426

> <actual_activity_value>
6.301029995663981

> <Compound>
13

> <standard_units>
nM

> hash
2012092047828091155

$$$$
12
XXILIB    08252103513D 0   0.00000     0.00000

 39 41  0     1  0            999 V2000
    5.0031   -1.4965   -0.0707 Cl  0  0  0  0  0  1           0  0  0
   -4.5069   -2.7963    6.1420 S   0  0  1  0  0  6           0  0  0
   -4.8507   -3.5826    8.5890 F   0  0  0  0  0  1           0  0  0
   -6.6371   -3.6688    7.3359 F   0  0  0  0  0  1           0  0  0
   -5.0502   -5.1438    7.0787 F   0  0  0  0  0  1           0  0  0
   -5.0480   -3.1469    4.8427 O   0  0  0  0  0  2           0  0  0
   -3.0799   -2.8283    6.3948 O   0  0  0  0  0  2           0  0  0
    1.2678   -2.2804   -2.3696 O   0  0  0  0  0  2           0  0  0
   -3.7411    1.5289    5.1790 O   0  0  0  0  0  2           0  0  0
    1.8112   -4.3490   -1.5040 O   0  0  0  0  0  2           0  0  0
    1.4518    0.0000   -0.0000 N   0  0  0  0  0  3           0  0  0
    3.5392    0.7614   -0.0216 N   0  0  0  0  0  3           0  0  0
   -5.1362   -1.2837    6.6452 N   0  0  0  0  0  3           0  0  0
   -2.0905   -0.0900    5.3244 N   0  0  0  0  0  3           0  0  0
    3.5484   -0.6083   -0.0369 C   0  0  0  0  0  4           0  0  0
    2.2693    1.1141    0.0000 C   0  0  0  0  0  4           0  0  0
    2.2632   -1.1180   -0.0244 C   0  0  0  0  0  4           0  0  0
   -4.4393   -0.4926    7.6239 C   0  0  0  0  0  4           0  0  0
   -1.5976   -0.0351    4.0067 C   0  0  0  0  0  4           0  0  0
   -3.4715    0.4578    7.2438 C   0  0  0  0  0  4           0  0  0
   -0.5425    0.0000    1.3969 C   0  0  0  0  0  4           0  0  0
   -4.7747   -0.6247    8.9803 C   0  0  0  0  0  4           0  0  0
   -2.1202    0.8385    3.0477 C   0  0  0  0  0  4           0  0  0
   -0.5488   -0.8918    3.6575 C   0  0  0  0  0  4           0  0  0
   -2.8296    1.2241    8.2302 C   0  0  0  0  0  4           0  0  0
   -1.5957    0.8531    1.7521 C   0  0  0  0  0  4           0  0  0
   -0.0270   -0.8750    2.3618 C   0  0  0  0  0  4           0  0  0
   -4.1316    0.1434    9.9505 C   0  0  0  0  0  4           0  0  0
   -3.1569    1.0621    9.5763 C   0  0  0  0  0  4           0  0  0
   -5.2920   -3.8348    7.3330 C   0  0  1  0  0  4           0  0  0
    1.5743   -3.0089   -1.4337 C   0  0  0  0  0  4           0  0  0
   -3.1187    0.6859    5.8217 C   0  0  0  0  0  4           0  0  0
    1.6817   -4.9282   -2.8064 C   0  0  0  0  0  4           0  0  0
    0.0000    0.0000    0.0000 C   0  0  0  0  0  4           0  0  0
    1.7861    2.5194    0.0249 C   0  0  0  0  0  4           0  0  0
    1.7753   -2.5197   -0.0263 C   0  0  0  0  0  4           0  0  0
    1.5741    3.0852   -1.3760 C   0  0  0  0  0  4           0  0  0
    1.0763    4.5308   -1.4050 C   0  0  0  0  0  4           0  0  0
    0.8881    5.0269   -2.8294 C   0  0  0  0  0  4           0  0  0
  1 15  1  0     0  0
  2  6  2  0     0  0
  2  7  2  0     0  0
  2 13  1  0     0  0
  2 30  1  0     0  0
  3 30  1  0     0  0
  4 30  1  0     0  0
  5 30  1  0     0  0
  8 31  2  0     0  0
  9 32  2  0     0  0
 10 31  1  0     0  0
 10 33  1  0     0  0
 11 16  1  0     0  0
 11 17  1  0     0  0
 11 34  1  0     0  0
 12 15  1  0     0  0
 12 16  2  0     0  0
 13 18  1  0     0  0
 14 19  1  0     0  0
 14 32  1  0     0  0
 15 17  2  0     0  0
 16 35  1  0     0  0
 17 36  1  0     0  0
 18 20  1  0     0  0
 18 22  2  0     0  0
 19 23  2  0     0  0
 19 24  1  0     0  0
 20 25  2  0     0  0
 20 32  1  0     0  0
 21 26  2  0     0  0
 21 27  1  0     0  0
 21 34  1  0     0  0
 22 28  1  0     0  0
 23 26  1  0     0  0
 24 27  2  0     0  0
 25 29  1  0     0  0
 28 29  2  0     0  0
 31 36  1  0     0  0
 35 37  1  0     0  0
 37 38  1  0     0  0
 38 39  1  0     0  0
M  END
> <standard_type>
pIC50

> <# Confs.>
25

> <canonical_smiles>
ClC(N=C1CCCC)=C(CC(OC)=O)N1CC2=CC=C(NC(C3=CC=CC=C3NS(=O)(C(F)(F)F)=O)=O)C=C2

> <standard_relation>
=

> <Publication_ID>
nan

> <predicted_activity_value>
5.337242168318426

> <actual_activity_value>
6.301029995663981

> <Compound>
13

> <standard_units>
nM

> hash
2012092047828091155

$$$$
19
XXILIB    08252103513D 0   0.00000     0.00000

 28 30  0     1  0            999 V2000
    5.0074    1.4914    0.0122 Cl  0  0  0  0  0  1           0  0  0
   -4.6018   -1.0254    3.9373 O   0  0  0  0  0  2           0  0  0
   -5.2861    0.9787    4.7809 O   0  0  0  0  0  2           0  0  0
    1.6390    2.9308    1.3457 O   0  0  0  0  0  2           0  0  0
    1.4523    0.0000    0.0000 N   0  0  0  0  0  3           0  0  0
    3.5393   -0.7630    0.0025 N   0  0  0  0  0  3           0  0  0
    3.5500    0.6068    0.0019 C   0  0  0  0  0  4           0  0  0
    2.2690   -1.1150    0.0000 C   0  0  0  0  0  4           0  0  0
    2.2653    1.1171   -0.0044 C   0  0  0  0  0  4           0  0  0
   -2.0446   -0.0040    5.4234 C   0  0  0  0  0  4           0  0  0
   -1.5306   -0.0017    4.0471 C   0  0  0  0  0  4           0  0  0
   -3.4195   -0.0176    5.7457 C   0  0  0  0  0  4           0  0  0
   -0.5425    0.0000    1.3966 C   0  0  0  0  0  4           0  0  0
   -1.1355    0.0384    6.4998 C   0  0  0  0  0  4           0  0  0
   -1.2915    1.2039    3.3707 C   0  0  0  0  0  4           0  0  0
   -1.2647   -1.2060    3.3790 C   0  0  0  0  0  4           0  0  0
   -3.8595    0.0384    7.0761 C   0  0  0  0  0  4           0  0  0
   -0.8009    1.2048    2.0617 C   0  0  0  0  0  4           0  0  0
   -0.7743   -1.2055    2.0702 C   0  0  0  0  0  4           0  0  0
   -1.5732    0.0806    7.8271 C   0  0  0  0  0  4           0  0  0
   -2.9337    0.0847    8.1141 C   0  0  0  0  0  4           0  0  0
   -4.4774   -0.1029    4.7248 C   0  0  0  0  0  4           0  0  0
    1.7796    2.5134   -0.0058 C   0  0  0  0  0  4           0  0  0
    0.0000    0.0000    0.0000 C   0  0  0  0  0  4           0  0  0
    1.7859   -2.5228    0.0017 C   0  0  0  0  0  4           0  0  0
    2.5394   -3.3969   -0.9956 C   0  0  0  0  0  4           0  0  0
    2.4278   -2.9321   -2.4480 C   0  0  0  0  0  4           0  0  0
    3.1904   -3.8258   -3.4146 C   0  0  0  0  0  4           0  0  0
  1  7  1  0     0  0
  2 22  2  0     0  0
  3 22  1  0     0  0
  4 23  1  0     0  0
  5  8  1  0     0  0
  5  9  1  0     0  0
  5 24  1  0     0  0
  6  7  1  0     0  0
  6  8  2  0     0  0
  7  9  2  0     0  0
  8 25  1  0     0  0
  9 23  1  0     0  0
 10 11  1  0     0  0
 10 12  1  0     0  0
 10 14  2  0     0  0
 11 15  2  0     0  0
 11 16  1  0     0  0
 12 17  2  0     0  0
 12 22  1  0     0  0
 13 18  2  0     0  0
 13 19  1  0     0  0
 13 24  1  0     0  0
 14 20  1  0     0  0
 15 18  1  0     0  0
 16 19  2  0     0  0
 17 21  1  0     0  0
 20 21  2  0     0  0
 25 26  1  0     0  0
 26 27  1  0     0  0
 27 28  1  0     0  0
M  END
> <standard_type>
pIC50

> <# Confs.>
25

> <canonical_smiles>
ClC(N=C1CCCC)=C(CO)N1CC2=CC=C(C3=CC=CC=C3C(O)=O)C=C2

> <standard_relation>
=

> <Publication_ID>
nan

> <predicted_activity_value>
5.0

> <actual_activity_value>
4.958607314841775

> <Compound>
20

> <standard_units>
nM

> hash
4469256553819631414

$$$$
19
XXILIB    08252103513D 0   0.00000     0.00000

 28 30  0     1  0            999 V2000
    5.0074    1.4914    0.0122 Cl  0  0  0  0  0  1           0  0  0
   -4.6018   -1.0254    3.9373 O   0  0  0  0  0  2           0  0  0
   -5.2861    0.9787    4.7809 O   0  0  0  0  0  2           0  0  0
    1.6390    2.9308    1.3457 O   0  0  0  0  0  2           0  0  0
    1.4523    0.0000    0.0000 N   0  0  0  0  0  3           0  0  0
    3.5393   -0.7630    0.0025 N   0  0  0  0  0  3           0  0  0
    3.5500    0.6068    0.0019 C   0  0  0  0  0  4           0  0  0
    2.2690   -1.1150    0.0000 C   0  0  0  0  0  4           0  0  0
    2.2653    1.1171   -0.0044 C   0  0  0  0  0  4           0  0  0
   -2.0446   -0.0040    5.4234 C   0  0  0  0  0  4           0  0  0
   -1.5306   -0.0017    4.0471 C   0  0  0  0  0  4           0  0  0
   -3.4195   -0.0176    5.7457 C   0  0  0  0  0  4           0  0  0
   -0.5425    0.0000    1.3966 C   0  0  0  0  0  4           0  0  0
   -1.1355    0.0384    6.4998 C   0  0  0  0  0  4           0  0  0
   -1.2915    1.2039    3.3707 C   0  0  0  0  0  4           0  0  0
   -1.2647   -1.2060    3.3790 C   0  0  0  0  0  4           0  0  0
   -3.8595    0.0384    7.0761 C   0  0  0  0  0  4           0  0  0
   -0.8009    1.2048    2.0617 C   0  0  0  0  0  4           0  0  0
   -0.7743   -1.2055    2.0702 C   0  0  0  0  0  4           0  0  0
   -1.5732    0.0806    7.8271 C   0  0  0  0  0  4           0  0  0
   -2.9337    0.0847    8.1141 C   0  0  0  0  0  4           0  0  0
   -4.4774   -0.1029    4.7248 C   0  0  0  0  0  4           0  0  0
    1.7796    2.5134   -0.0058 C   0  0  0  0  0  4           0  0  0
    0.0000    0.0000    0.0000 C   0  0  0  0  0  4           0  0  0
    1.7859   -2.5228    0.0017 C   0  0  0  0  0  4           0  0  0
    2.5394   -3.3969   -0.9956 C   0  0  0  0  0  4           0  0  0
    2.0766   -4.8538   -1.0289 C   0  0  0  0  0  4           0  0  0
    2.8486   -5.6962   -2.0335 C   0  0  0  0  0  4           0  0  0
  1  7  1  0     0  0
  2 22  2  0     0  0
  3 22  1  0     0  0
  4 23  1  0     0  0
  5  8  1  0     0  0
  5  9  1  0     0  0
  5 24  1  0     0  0
  6  7  1  0     0  0
  6  8  2  0     0  0
  7  9  2  0     0  0
  8 25  1  0     0  0
  9 23  1  0     0  0
 10 11  1  0     0  0
 10 12  1  0     0  0
 10 14  2  0     0  0
 11 15  2  0     0  0
 11 16  1  0     0  0
 12 17  2  0     0  0
 12 22  1  0     0  0
 13 18  2  0     0  0
 13 19  1  0     0  0
 13 24  1  0     0  0
 14 20  1  0     0  0
 15 18  1  0     0  0
 16 19  2  0     0  0
 17 21  1  0     0  0
 20 21  2  0     0  0
 25 26  1  0     0  0
 26 27  1  0     0  0
 27 28  1  0     0  0
M  END
> <standard_type>
pIC50

> <# Confs.>
25

> <canonical_smiles>
ClC(N=C1CCCC)=C(CO)N1CC2=CC=C(C3=CC=CC=C3C(O)=O)C=C2

> <standard_relation>
=

> <Publication_ID>
nan

> <predicted_activity_value>
5.0

> <actual_activity_value>
4.958607314841775

> <Compound>
20

> <standard_units>
nM

> hash
4469256553819631414

$$$$
19
XXILIB    08252103513D 0   0.00000     0.00000

 28 30  0     1  0            999 V2000
    5.0074   -1.4914   -0.0122 Cl  0  0  0  0  0  1           0  0  0
   -4.5330    1.3774    3.8855 O   0  0  0  0  0  2           0  0  0
   -3.8155    3.0509    5.2570 O   0  0  0  0  0  2           0  0  0
    1.6390   -2.9308   -1.3457 O   0  0  0  0  0  2           0  0  0
    1.4523    0.0000    0.0000 N   0  0  0  0  0  3           0  0  0
    3.5393    0.7630   -0.0025 N   0  0  0  0  0  3           0  0  0
    3.5500   -0.6068   -0.0019 C   0  0  0  0  0  4           0  0  0
    2.2690    1.1150   -0.0000 C   0  0  0  0  0  4           0  0  0
    2.2653   -1.1171    0.0044 C   0  0  0  0  0  4           0  0  0
   -2.1342    0.0438    5.3886 C   0  0  0  0  0  4           0  0  0
   -1.5911    0.0286    4.0236 C   0  0  0  0  0  4           0  0  0
   -3.2008    0.8743    5.7976 C   0  0  0  0  0  4           0  0  0
   -0.5425    0.0000    1.3966 C   0  0  0  0  0  4           0  0  0
   -1.5571   -0.7866    6.3705 C   0  0  0  0  0  4           0  0  0
   -2.1116   -0.8395    3.0522 C   0  0  0  0  0  4           0  0  0
   -0.5409    0.8844    3.6602 C   0  0  0  0  0  4           0  0  0
   -3.6452    0.8923    7.1276 C   0  0  0  0  0  4           0  0  0
   -1.5950   -0.8519    1.7533 C   0  0  0  0  0  4           0  0  0
   -0.0240    0.8721    2.3617 C   0  0  0  0  0  4           0  0  0
   -2.0085   -0.7791    7.6938 C   0  0  0  0  0  4           0  0  0
   -3.0486    0.0626    8.0722 C   0  0  0  0  0  4           0  0  0
   -3.9232    1.7605    4.8694 C   0  0  0  0  0  4           0  0  0
    1.7796   -2.5134    0.0058 C   0  0  0  0  0  4           0  0  0
   -0.0000    0.0000    0.0000 C   0  0  0  0  0  4           0  0  0
    1.7859    2.5228   -0.0017 C   0  0  0  0  0  4           0  0  0
    2.5417    3.3953   -0.9988 C   0  0  0  0  0  4           0  0  0
    2.4334    2.9280   -2.4506 C   0  0  0  0  0  4           0  0  0
    3.1982    3.8200   -3.4171 C   0  0  0  0  0  4           0  0  0
  1  7  1  0     0  0
  2 22  2  0     0  0
  3 22  1  0     0  0
  4 23  1  0     0  0
  5  8  1  0     0  0
  5  9  1  0     0  0
  5 24  1  0     0  0
  6  7  1  0     0  0
  6  8  2  0     0  0
  7  9  2  0     0  0
  8 25  1  0     0  0
  9 23  1  0     0  0
 10 11  1  0     0  0
 10 12  1  0     0  0
 10 14  2  0     0  0
 11 15  2  0     0  0
 11 16  1  0     0  0
 12 17  2  0     0  0
 12 22  1  0     0  0
 13 18  2  0     0  0
 13 19  1  0     0  0
 13 24  1  0     0  0
 14 20  1  0     0  0
 15 18  1  0     0  0
 16 19  2  0     0  0
 17 21  1  0     0  0
 20 21  2  0     0  0
 25 26  1  0     0  0
 26 27  1  0     0  0
 27 28  1  0     0  0
M  END
> <standard_type>
pIC50

> <# Confs.>
25

> <canonical_smiles>
ClC(N=C1CCCC)=C(CO)N1CC2=CC=C(C3=CC=CC=C3C(O)=O)C=C2

> <standard_relation>
=

> <Publication_ID>
nan

> <predicted_activity_value>
5.0

> <actual_activity_value>
4.958607314841775

> <Compound>
20

> <standard_units>
nM

> hash
4469256553819631414

$$$$
19
XXILIB    08252103513D 0   0.00000     0.00000

 28 30  0     1  0            999 V2000
    5.0074   -1.4914   -0.0122 Cl  0  0  0  0  0  1           0  0  0
   -0.4362   -2.5833    5.4690 O   0  0  0  0  0  2           0  0  0
    0.4951   -1.3412    7.1382 O   0  0  0  0  0  2           0  0  0
    1.6390   -2.9308   -1.3457 O   0  0  0  0  0  2           0  0  0
    1.4523    0.0000    0.0000 N   0  0  0  0  0  3           0  0  0
    3.5393    0.7630   -0.0025 N   0  0  0  0  0  3           0  0  0
    3.5500   -0.6068   -0.0019 C   0  0  0  0  0  4           0  0  0
    2.2690    1.1150   -0.0000 C   0  0  0  0  0  4           0  0  0
    2.2653   -1.1171    0.0044 C   0  0  0  0  0  4           0  0  0
   -2.1342    0.0438    5.3886 C   0  0  0  0  0  4           0  0  0
   -1.5911    0.0286    4.0236 C   0  0  0  0  0  4           0  0  0
   -1.6465   -0.7703    6.4344 C   0  0  0  0  0  4           0  0  0
   -0.5425    0.0000    1.3966 C   0  0  0  0  0  4           0  0  0
   -3.2217    0.8886    5.6894 C   0  0  0  0  0  4           0  0  0
   -2.1116   -0.8395    3.0522 C   0  0  0  0  0  4           0  0  0
   -0.5409    0.8844    3.6602 C   0  0  0  0  0  4           0  0  0
   -2.2373   -0.7592    7.7063 C   0  0  0  0  0  4           0  0  0
   -1.5950   -0.8519    1.7533 C   0  0  0  0  0  4           0  0  0
   -0.0240    0.8721    2.3617 C   0  0  0  0  0  4           0  0  0
   -3.8028    0.9102    6.9610 C   0  0  0  0  0  4           0  0  0
   -3.3133    0.0840    7.9666 C   0  0  0  0  0  4           0  0  0
   -0.4908   -1.6687    6.2735 C   0  0  0  0  0  4           0  0  0
    1.7796   -2.5134    0.0058 C   0  0  0  0  0  4           0  0  0
   -0.0000    0.0000    0.0000 C   0  0  0  0  0  4           0  0  0
    1.7859    2.5228   -0.0017 C   0  0  0  0  0  4           0  0  0
    2.5417    3.3953   -0.9988 C   0  0  0  0  0  4           0  0  0
    2.4334    2.9280   -2.4506 C   0  0  0  0  0  4           0  0  0
    3.1982    3.8200   -3.4171 C   0  0  0  0  0  4           0  0  0
  1  7  1  0     0  0
  2 22  2  0     0  0
  3 22  1  0     0  0
  4 23  1  0     0  0
  5  8  1  0     0  0
  5  9  1  0     0  0
  5 24  1  0     0  0
  6  7  1  0     0  0
  6  8  2  0     0  0
  7  9  2  0     0  0
  8 25  1  0     0  0
  9 23  1  0     0  0
 10 11  1  0     0  0
 10 12  1  0     0  0
 10 14  2  0     0  0
 11 15  2  0     0  0
 11 16  1  0     0  0
 12 17  2  0     0  0
 12 22  1  0     0  0
 13 18  2  0     0  0
 13 19  1  0     0  0
 13 24  1  0     0  0
 14 20  1  0     0  0
 15 18  1  0     0  0
 16 19  2  0     0  0
 17 21  1  0     0  0
 20 21  2  0     0  0
 25 26  1  0     0  0
 26 27  1  0     0  0
 27 28  1  0     0  0
M  END
> <standard_type>
pIC50

> <# Confs.>
25

> <canonical_smiles>
ClC(N=C1CCCC)=C(CO)N1CC2=CC=C(C3=CC=CC=C3C(O)=O)C=C2

> <standard_relation>
=

> <Publication_ID>
nan

> <predicted_activity_value>
5.0

> <actual_activity_value>
4.958607314841775

> <Compound>
20

> <standard_units>
nM

> hash
4469256553819631414

$$$$
19
XXILIB    08252103513D 0   0.00000     0.00000

 28 30  0     1  0            999 V2000
    5.0074   -1.4914   -0.0122 Cl  0  0  0  0  0  1           0  0  0
   -3.4032    2.6589    4.2298 O   0  0  0  0  0  2           0  0  0
   -5.2361    1.4422    4.8267 O   0  0  0  0  0  2           0  0  0
    1.6390   -2.9308   -1.3457 O   0  0  0  0  0  2           0  0  0
    1.4523    0.0000    0.0000 N   0  0  0  0  0  3           0  0  0
    3.5393    0.7630   -0.0025 N   0  0  0  0  0  3           0  0  0
    3.5500   -0.6068   -0.0019 C   0  0  0  0  0  4           0  0  0
    2.2690    1.1150   -0.0000 C   0  0  0  0  0  4           0  0  0
    2.2653   -1.1171    0.0044 C   0  0  0  0  0  4           0  0  0
   -2.1342    0.0438    5.3886 C   0  0  0  0  0  4           0  0  0
   -1.5911    0.0286    4.0236 C   0  0  0  0  0  4           0  0  0
   -3.2008    0.8743    5.7976 C   0  0  0  0  0  4           0  0  0
   -0.5425    0.0000    1.3966 C   0  0  0  0  0  4           0  0  0
   -1.5571   -0.7866    6.3705 C   0  0  0  0  0  4           0  0  0
   -2.1116   -0.8395    3.0522 C   0  0  0  0  0  4           0  0  0
   -0.5409    0.8844    3.6602 C   0  0  0  0  0  4           0  0  0
   -3.6452    0.8923    7.1276 C   0  0  0  0  0  4           0  0  0
   -1.5950   -0.8519    1.7533 C   0  0  0  0  0  4           0  0  0
   -0.0240    0.8721    2.3617 C   0  0  0  0  0  4           0  0  0
   -2.0085   -0.7791    7.6938 C   0  0  0  0  0  4           0  0  0
   -3.0486    0.0626    8.0722 C   0  0  0  0  0  4           0  0  0
   -3.9232    1.7605    4.8694 C   0  0  0  0  0  4           0  0  0
    1.7796   -2.5134    0.0058 C   0  0  0  0  0  4           0  0  0
   -0.0000    0.0000    0.0000 C   0  0  0  0  0  4           0  0  0
    1.7859    2.5228   -0.0017 C   0  0  0  0  0  4           0  0  0
    2.5417    3.3953   -0.9988 C   0  0  0  0  0  4           0  0  0
    2.4334    2.9280   -2.4506 C   0  0  0  0  0  4           0  0  0
    3.1982    3.8200   -3.4171 C   0  0  0  0  0  4           0  0  0
  1  7  1  0     0  0
  2 22  2  0     0  0
  3 22  1  0     0  0
  4 23  1  0     0  0
  5  8  1  0     0  0
  5  9  1  0     0  0
  5 24  1  0     0  0
  6  7  1  0     0  0
  6  8  2  0     0  0
  7  9  2  0     0  0
  8 25  1  0     0  0
  9 23  1  0     0  0
 10 11  1  0     0  0
 10 12  1  0     0  0
 10 14  2  0     0  0
 11 15  2  0     0  0
 11 16  1  0     0  0
 12 17  2  0     0  0
 12 22  1  0     0  0
 13 18  2  0     0  0
 13 19  1  0     0  0
 13 24  1  0     0  0
 14 20  1  0     0  0
 15 18  1  0     0  0
 16 19  2  0     0  0
 17 21  1  0     0  0
 20 21  2  0     0  0
 25 26  1  0     0  0
 26 27  1  0     0  0
 27 28  1  0     0  0
M  END
> <standard_type>
pIC50

> <# Confs.>
25

> <canonical_smiles>
ClC(N=C1CCCC)=C(CO)N1CC2=CC=C(C3=CC=CC=C3C(O)=O)C=C2

> <standard_relation>
=

> <Publication_ID>
nan

> <predicted_activity_value>
5.0

> <actual_activity_value>
4.958607314841775

> <Compound>
20

> <standard_units>
nM

> hash
4469256553819631414

$$$$
19
XXILIB    08252103513D 0   0.00000     0.00000

 28 30  0     1  0            999 V2000
    5.0074    1.4914    0.0122 Cl  0  0  0  0  0  1           0  0  0
   -4.6431    0.7138    3.8347 O   0  0  0  0  0  2           0  0  0
   -5.2363   -1.2057    4.9118 O   0  0  0  0  0  2           0  0  0
    1.6390    2.9308    1.3457 O   0  0  0  0  0  2           0  0  0
    1.4523    0.0000    0.0000 N   0  0  0  0  0  3           0  0  0
    3.5393   -0.7630    0.0025 N   0  0  0  0  0  3           0  0  0
    3.5500    0.6068    0.0019 C   0  0  0  0  0  4           0  0  0
    2.2690   -1.1150    0.0000 C   0  0  0  0  0  4           0  0  0
    2.2653    1.1171   -0.0044 C   0  0  0  0  0  4           0  0  0
   -2.0446   -0.0040    5.4234 C   0  0  0  0  0  4           0  0  0
   -1.5306   -0.0017    4.0471 C   0  0  0  0  0  4           0  0  0
   -3.4195   -0.0176    5.7457 C   0  0  0  0  0  4           0  0  0
   -0.5425    0.0000    1.3966 C   0  0  0  0  0  4           0  0  0
   -1.1355    0.0384    6.4998 C   0  0  0  0  0  4           0  0  0
   -1.2915    1.2039    3.3707 C   0  0  0  0  0  4           0  0  0
   -1.2647   -1.2060    3.3790 C   0  0  0  0  0  4           0  0  0
   -3.8595    0.0384    7.0761 C   0  0  0  0  0  4           0  0  0
   -0.8009    1.2048    2.0617 C   0  0  0  0  0  4           0  0  0
   -0.7743   -1.2055    2.0702 C   0  0  0  0  0  4           0  0  0
   -1.5732    0.0806    7.8271 C   0  0  0  0  0  4           0  0  0
   -2.9337    0.0847    8.1141 C   0  0  0  0  0  4           0  0  0
   -4.4774   -0.1029    4.7248 C   0  0  0  0  0  4           0  0  0
    1.7796    2.5134   -0.0058 C   0  0  0  0  0  4           0  0  0
    0.0000    0.0000    0.0000 C   0  0  0  0  0  4           0  0  0
    1.7859   -2.5228    0.0017 C   0  0  0  0  0  4           0  0  0
    2.5394   -3.3969   -0.9956 C   0  0  0  0  0  4           0  0  0
    2.4278   -2.9321   -2.4480 C   0  0  0  0  0  4           0  0  0
    3.1904   -3.8258   -3.4146 C   0  0  0  0  0  4           0  0  0
  1  7  1  0     0  0
  2 22  2  0     0  0
  3 22  1  0     0  0
  4 23  1  0     0  0
  5  8  1  0     0  0
  5  9  1  0     0  0
  5 24  1  0     0  0
  6  7  1  0     0  0
  6  8  2  0     0  0
  7  9  2  0     0  0
  8 25  1  0     0  0
  9 23  1  0     0  0
 10 11  1  0     0  0
 10 12  1  0     0  0
 10 14  2  0     0  0
 11 15  2  0     0  0
 11 16  1  0     0  0
 12 17  2  0     0  0
 12 22  1  0     0  0
 13 18  2  0     0  0
 13 19  1  0     0  0
 13 24  1  0     0  0
 14 20  1  0     0  0
 15 18  1  0     0  0
 16 19  2  0     0  0
 17 21  1  0     0  0
 20 21  2  0     0  0
 25 26  1  0     0  0
 26 27  1  0     0  0
 27 28  1  0     0  0
M  END
> <standard_type>
pIC50

> <# Confs.>
25

> <canonical_smiles>
ClC(N=C1CCCC)=C(CO)N1CC2=CC=C(C3=CC=CC=C3C(O)=O)C=C2

> <standard_relation>
=

> <Publication_ID>
nan

> <predicted_activity_value>
5.0

> <actual_activity_value>
4.958607314841775

> <Compound>
20

> <standard_units>
nM

> hash
4469256553819631414

$$$$
19
XXILIB    08252103513D 0   0.00000     0.00000

 28 30  0     1  0            999 V2000
    5.0074    1.4914    0.0122 Cl  0  0  0  0  0  1           0  0  0
   -4.6431    0.7138    3.8347 O   0  0  0  0  0  2           0  0  0
   -5.2363   -1.2057    4.9118 O   0  0  0  0  0  2           0  0  0
    1.6390    2.9308    1.3457 O   0  0  0  0  0  2           0  0  0
    1.4523    0.0000    0.0000 N   0  0  0  0  0  3           0  0  0
    3.5393   -0.7630    0.0025 N   0  0  0  0  0  3           0  0  0
    3.5500    0.6068    0.0019 C   0  0  0  0  0  4           0  0  0
    2.2690   -1.1150    0.0000 C   0  0  0  0  0  4           0  0  0
    2.2653    1.1171   -0.0044 C   0  0  0  0  0  4           0  0  0
   -2.0446   -0.0040    5.4234 C   0  0  0  0  0  4           0  0  0
   -1.5306   -0.0017    4.0471 C   0  0  0  0  0  4           0  0  0
   -3.4195   -0.0176    5.7457 C   0  0  0  0  0  4           0  0  0
   -0.5425    0.0000    1.3966 C   0  0  0  0  0  4           0  0  0
   -1.1355    0.0384    6.4998 C   0  0  0  0  0  4           0  0  0
   -1.2915    1.2039    3.3707 C   0  0  0  0  0  4           0  0  0
   -1.2647   -1.2060    3.3790 C   0  0  0  0  0  4           0  0  0
   -3.8595    0.0384    7.0761 C   0  0  0  0  0  4           0  0  0
   -0.8009    1.2048    2.0617 C   0  0  0  0  0  4           0  0  0
   -0.7743   -1.2055    2.0702 C   0  0  0  0  0  4           0  0  0
   -1.5732    0.0806    7.8271 C   0  0  0  0  0  4           0  0  0
   -2.9337    0.0847    8.1141 C   0  0  0  0  0  4           0  0  0
   -4.4774   -0.1029    4.7248 C   0  0  0  0  0  4           0  0  0
    1.7796    2.5134   -0.0058 C   0  0  0  0  0  4           0  0  0
    0.0000    0.0000    0.0000 C   0  0  0  0  0  4           0  0  0
    1.7859   -2.5228    0.0017 C   0  0  0  0  0  4           0  0  0
    2.5394   -3.3969   -0.9956 C   0  0  0  0  0  4           0  0  0
    2.0766   -4.8538   -1.0289 C   0  0  0  0  0  4           0  0  0
    2.8486   -5.6962   -2.0335 C   0  0  0  0  0  4           0  0  0
  1  7  1  0     0  0
  2 22  2  0     0  0
  3 22  1  0     0  0
  4 23  1  0     0  0
  5  8  1  0     0  0
  5  9  1  0     0  0
  5 24  1  0     0  0
  6  7  1  0     0  0
  6  8  2  0     0  0
  7  9  2  0     0  0
  8 25  1  0     0  0
  9 23  1  0     0  0
 10 11  1  0     0  0
 10 12  1  0     0  0
 10 14  2  0     0  0
 11 15  2  0     0  0
 11 16  1  0     0  0
 12 17  2  0     0  0
 12 22  1  0     0  0
 13 18  2  0     0  0
 13 19  1  0     0  0
 13 24  1  0     0  0
 14 20  1  0     0  0
 15 18  1  0     0  0
 16 19  2  0     0  0
 17 21  1  0     0  0
 20 21  2  0     0  0
 25 26  1  0     0  0
 26 27  1  0     0  0
 27 28  1  0     0  0
M  END
> <standard_type>
pIC50

> <# Confs.>
25

> <canonical_smiles>
ClC(N=C1CCCC)=C(CO)N1CC2=CC=C(C3=CC=CC=C3C(O)=O)C=C2

> <standard_relation>
=

> <Publication_ID>
nan

> <predicted_activity_value>
5.0

> <actual_activity_value>
4.958607314841775

> <Compound>
20

> <standard_units>
nM

> hash
4469256553819631414

$$$$
19
XXILIB    08252103513D 0   0.00000     0.00000

 28 30  0     1  0            999 V2000
    5.0074   -1.4914   -0.0122 Cl  0  0  0  0  0  1           0  0  0
   -4.5330    1.3774    3.8855 O   0  0  0  0  0  2           0  0  0
   -3.8155    3.0509    5.2570 O   0  0  0  0  0  2           0  0  0
    1.6390   -2.9308   -1.3457 O   0  0  0  0  0  2           0  0  0
    1.4523    0.0000    0.0000 N   0  0  0  0  0  3           0  0  0
    3.5393    0.7630   -0.0025 N   0  0  0  0  0  3           0  0  0
    3.5500   -0.6068   -0.0019 C   0  0  0  0  0  4           0  0  0
    2.2690    1.1150   -0.0000 C   0  0  0  0  0  4           0  0  0
    2.2653   -1.1171    0.0044 C   0  0  0  0  0  4           0  0  0
   -2.1342    0.0438    5.3886 C   0  0  0  0  0  4           0  0  0
   -1.5911    0.0286    4.0236 C   0  0  0  0  0  4           0  0  0
   -3.2008    0.8743    5.7976 C   0  0  0  0  0  4           0  0  0
   -0.5425    0.0000    1.3966 C   0  0  0  0  0  4           0  0  0
   -1.5571   -0.7866    6.3705 C   0  0  0  0  0  4           0  0  0
   -2.1116   -0.8395    3.0522 C   0  0  0  0  0  4           0  0  0
   -0.5409    0.8844    3.6602 C   0  0  0  0  0  4           0  0  0
   -3.6452    0.8923    7.1276 C   0  0  0  0  0  4           0  0  0
   -1.5950   -0.8519    1.7533 C   0  0  0  0  0  4           0  0  0
   -0.0240    0.8721    2.3617 C   0  0  0  0  0  4           0  0  0
   -2.0085   -0.7791    7.6938 C   0  0  0  0  0  4           0  0  0
   -3.0486    0.0626    8.0722 C   0  0  0  0  0  4           0  0  0
   -3.9232    1.7605    4.8694 C   0  0  0  0  0  4           0  0  0
    1.7796   -2.5134    0.0058 C   0  0  0  0  0  4           0  0  0
   -0.0000    0.0000    0.0000 C   0  0  0  0  0  4           0  0  0
    1.7859    2.5228   -0.0017 C   0  0  0  0  0  4           0  0  0
    2.5417    3.3953   -0.9988 C   0  0  0  0  0  4           0  0  0
    2.0789    4.8521   -1.0356 C   0  0  0  0  0  4           0  0  0
    2.8532    5.6928   -2.0399 C   0  0  0  0  0  4           0  0  0
  1  7  1  0     0  0
  2 22  2  0     0  0
  3 22  1  0     0  0
  4 23  1  0     0  0
  5  8  1  0     0  0
  5  9  1  0     0  0
  5 24  1  0     0  0
  6  7  1  0     0  0
  6  8  2  0     0  0
  7  9  2  0     0  0
  8 25  1  0     0  0
  9 23  1  0     0  0
 10 11  1  0     0  0
 10 12  1  0     0  0
 10 14  2  0     0  0
 11 15  2  0     0  0
 11 16  1  0     0  0
 12 17  2  0     0  0
 12 22  1  0     0  0
 13 18  2  0     0  0
 13 19  1  0     0  0
 13 24  1  0     0  0
 14 20  1  0     0  0
 15 18  1  0     0  0
 16 19  2  0     0  0
 17 21  1  0     0  0
 20 21  2  0     0  0
 25 26  1  0     0  0
 26 27  1  0     0  0
 27 28  1  0     0  0
M  END
> <standard_type>
pIC50

> <# Confs.>
25

> <canonical_smiles>
ClC(N=C1CCCC)=C(CO)N1CC2=CC=C(C3=CC=CC=C3C(O)=O)C=C2

> <standard_relation>
=

> <Publication_ID>
nan

> <predicted_activity_value>
5.0

> <actual_activity_value>
4.958607314841775

> <Compound>
20

> <standard_units>
nM

> hash
4469256553819631414

$$$$
19
XXILIB    08252103513D 0   0.00000     0.00000

 28 30  0     1  0            999 V2000
    5.0074   -1.4914   -0.0122 Cl  0  0  0  0  0  1           0  0  0
   -0.0474    2.5414    6.1431 O   0  0  0  0  0  2           0  0  0
    0.9531    0.5215    6.4832 O   0  0  0  0  0  2           0  0  0
    0.7351   -2.6159   -0.9528 O   0  0  0  0  0  2           0  0  0
    1.4523    0.0000    0.0000 N   0  0  0  0  0  3           0  0  0
    3.5393    0.7630   -0.0025 N   0  0  0  0  0  3           0  0  0
    3.5500   -0.6068   -0.0019 C   0  0  0  0  0  4           0  0  0
    2.2690    1.1150   -0.0000 C   0  0  0  0  0  4           0  0  0
    2.2653   -1.1171    0.0044 C   0  0  0  0  0  4           0  0  0
   -2.0446   -0.0040    5.4234 C   0  0  0  0  0  4           0  0  0
   -1.5306   -0.0017    4.0471 C   0  0  0  0  0  4           0  0  0
   -1.3710    0.5931    6.5117 C   0  0  0  0  0  4           0  0  0
   -0.5425    0.0000    1.3966 C   0  0  0  0  0  4           0  0  0
   -3.2617   -0.6569    5.7047 C   0  0  0  0  0  4           0  0  0
   -1.2915    1.2039    3.3707 C   0  0  0  0  0  4           0  0  0
   -1.2647   -1.2060    3.3790 C   0  0  0  0  0  4           0  0  0
   -1.8768    0.5138    7.8173 C   0  0  0  0  0  4           0  0  0
   -0.8009    1.2048    2.0617 C   0  0  0  0  0  4           0  0  0
   -0.7743   -1.2055    2.0702 C   0  0  0  0  0  4           0  0  0
   -3.7735   -0.7247    7.0041 C   0  0  0  0  0  4           0  0  0
   -3.0793   -0.1434    8.0593 C   0  0  0  0  0  4           0  0  0
   -0.1130    1.3428    6.3571 C   0  0  0  0  0  4           0  0  0
    1.7796   -2.5134    0.0058 C   0  0  0  0  0  4           0  0  0
    0.0000    0.0000    0.0000 C   0  0  0  0  0  4           0  0  0
    1.7859    2.5228   -0.0017 C   0  0  0  0  0  4           0  0  0
    2.5417    3.3953   -0.9988 C   0  0  0  0  0  4           0  0  0
    2.4334    2.9280   -2.4506 C   0  0  0  0  0  4           0  0  0
    3.1982    3.8200   -3.4171 C   0  0  0  0  0  4           0  0  0
  1  7  1  0     0  0
  2 22  2  0     0  0
  3 22  1  0     0  0
  4 23  1  0     0  0
  5  8  1  0     0  0
  5  9  1  0     0  0
  5 24  1  0     0  0
  6  7  1  0     0  0
  6  8  2  0     0  0
  7  9  2  0     0  0
  8 25  1  0     0  0
  9 23  1  0     0  0
 10 11  1  0     0  0
 10 12  1  0     0  0
 10 14  2  0     0  0
 11 15  2  0     0  0
 11 16  1  0     0  0
 12 17  2  0     0  0
 12 22  1  0     0  0
 13 18  2  0     0  0
 13 19  1  0     0  0
 13 24  1  0     0  0
 14 20  1  0     0  0
 15 18  1  0     0  0
 16 19  2  0     0  0
 17 21  1  0     0  0
 20 21  2  0     0  0
 25 26  1  0     0  0
 26 27  1  0     0  0
 27 28  1  0     0  0
M  END
> <standard_type>
pIC50

> <# Confs.>
25

> <canonical_smiles>
ClC(N=C1CCCC)=C(CO)N1CC2=CC=C(C3=CC=CC=C3C(O)=O)C=C2

> <standard_relation>
=

> <Publication_ID>
nan

> <predicted_activity_value>
5.0

> <actual_activity_value>
4.958607314841775

> <Compound>
20

> <standard_units>
nM

> hash
4469256553819631414

$$$$
19
XXILIB    08252103513D 0   0.00000     0.00000

 28 30  0     1  0            999 V2000
    5.0074   -1.4914   -0.0122 Cl  0  0  0  0  0  1           0  0  0
   -0.4362   -2.5833    5.4690 O   0  0  0  0  0  2           0  0  0
    0.4951   -1.3412    7.1382 O   0  0  0  0  0  2           0  0  0
    1.6390   -2.9308   -1.3457 O   0  0  0  0  0  2           0  0  0
    1.4523    0.0000    0.0000 N   0  0  0  0  0  3           0  0  0
    3.5393    0.7630   -0.0025 N   0  0  0  0  0  3           0  0  0
    3.5500   -0.6068   -0.0019 C   0  0  0  0  0  4           0  0  0
    2.2690    1.1150   -0.0000 C   0  0  0  0  0  4           0  0  0
    2.2653   -1.1171    0.0044 C   0  0  0  0  0  4           0  0  0
   -2.1342    0.0438    5.3886 C   0  0  0  0  0  4           0  0  0
   -1.5911    0.0286    4.0236 C   0  0  0  0  0  4           0  0  0
   -1.6465   -0.7703    6.4344 C   0  0  0  0  0  4           0  0  0
   -0.5425    0.0000    1.3966 C   0  0  0  0  0  4           0  0  0
   -3.2217    0.8886    5.6894 C   0  0  0  0  0  4           0  0  0
   -2.1116   -0.8395    3.0522 C   0  0  0  0  0  4           0  0  0
   -0.5409    0.8844    3.6602 C   0  0  0  0  0  4           0  0  0
   -2.2373   -0.7592    7.7063 C   0  0  0  0  0  4           0  0  0
   -1.5950   -0.8519    1.7533 C   0  0  0  0  0  4           0  0  0
   -0.0240    0.8721    2.3617 C   0  0  0  0  0  4           0  0  0
   -3.8028    0.9102    6.9610 C   0  0  0  0  0  4           0  0  0
   -3.3133    0.0840    7.9666 C   0  0  0  0  0  4           0  0  0
   -0.4908   -1.6687    6.2735 C   0  0  0  0  0  4           0  0  0
    1.7796   -2.5134    0.0058 C   0  0  0  0  0  4           0  0  0
   -0.0000    0.0000    0.0000 C   0  0  0  0  0  4           0  0  0
    1.7859    2.5228   -0.0017 C   0  0  0  0  0  4           0  0  0
    2.5417    3.3953   -0.9988 C   0  0  0  0  0  4           0  0  0
    2.0789    4.8521   -1.0356 C   0  0  0  0  0  4           0  0  0
    2.8532    5.6928   -2.0399 C   0  0  0  0  0  4           0  0  0
  1  7  1  0     0  0
  2 22  2  0     0  0
  3 22  1  0     0  0
  4 23  1  0     0  0
  5  8  1  0     0  0
  5  9  1  0     0  0
  5 24  1  0     0  0
  6  7  1  0     0  0
  6  8  2  0     0  0
  7  9  2  0     0  0
  8 25  1  0     0  0
  9 23  1  0     0  0
 10 11  1  0     0  0
 10 12  1  0     0  0
 10 14  2  0     0  0
 11 15  2  0     0  0
 11 16  1  0     0  0
 12 17  2  0     0  0
 12 22  1  0     0  0
 13 18  2  0     0  0
 13 19  1  0     0  0
 13 24  1  0     0  0
 14 20  1  0     0  0
 15 18  1  0     0  0
 16 19  2  0     0  0
 17 21  1  0     0  0
 20 21  2  0     0  0
 25 26  1  0     0  0
 26 27  1  0     0  0
 27 28  1  0     0  0
M  END
> <standard_type>
pIC50

> <# Confs.>
25

> <canonical_smiles>
ClC(N=C1CCCC)=C(CO)N1CC2=CC=C(C3=CC=CC=C3C(O)=O)C=C2

> <standard_relation>
=

> <Publication_ID>
nan

> <predicted_activity_value>
5.0

> <actual_activity_value>
4.958607314841775

> <Compound>
20

> <standard_units>
nM

> hash
4469256553819631414

$$$$
19
XXILIB    08252103513D 0   0.00000     0.00000

 28 30  0     1  0            999 V2000
    5.0074   -1.4914   -0.0122 Cl  0  0  0  0  0  1           0  0  0
   -4.6431    0.7138    3.8347 O   0  0  0  0  0  2           0  0  0
   -5.2363   -1.2057    4.9118 O   0  0  0  0  0  2           0  0  0
    0.7351   -2.6159   -0.9528 O   0  0  0  0  0  2           0  0  0
    1.4523    0.0000    0.0000 N   0  0  0  0  0  3           0  0  0
    3.5393    0.7630   -0.0025 N   0  0  0  0  0  3           0  0  0
    3.5500   -0.6068   -0.0019 C   0  0  0  0  0  4           0  0  0
    2.2690    1.1150   -0.0000 C   0  0  0  0  0  4           0  0  0
    2.2653   -1.1171    0.0044 C   0  0  0  0  0  4           0  0  0
   -2.0446   -0.0040    5.4234 C   0  0  0  0  0  4           0  0  0
   -1.5306   -0.0017    4.0471 C   0  0  0  0  0  4           0  0  0
   -3.4195   -0.0176    5.7457 C   0  0  0  0  0  4           0  0  0
   -0.5425    0.0000    1.3966 C   0  0  0  0  0  4           0  0  0
   -1.1355    0.0384    6.4998 C   0  0  0  0  0  4           0  0  0
   -1.2915    1.2039    3.3707 C   0  0  0  0  0  4           0  0  0
   -1.2647   -1.2060    3.3790 C   0  0  0  0  0  4           0  0  0
   -3.8595    0.0384    7.0761 C   0  0  0  0  0  4           0  0  0
   -0.8009    1.2048    2.0617 C   0  0  0  0  0  4           0  0  0
   -0.7743   -1.2055    2.0702 C   0  0  0  0  0  4           0  0  0
   -1.5732    0.0806    7.8271 C   0  0  0  0  0  4           0  0  0
   -2.9337    0.0847    8.1141 C   0  0  0  0  0  4           0  0  0
   -4.4774   -0.1029    4.7248 C   0  0  0  0  0  4           0  0  0
    1.7796   -2.5134    0.0058 C   0  0  0  0  0  4           0  0  0
    0.0000    0.0000    0.0000 C   0  0  0  0  0  4           0  0  0
    1.7859    2.5228   -0.0017 C   0  0  0  0  0  4           0  0  0
    2.5417    3.3953   -0.9988 C   0  0  0  0  0  4           0  0  0
    2.4334    2.9280   -2.4506 C   0  0  0  0  0  4           0  0  0
    3.1982    3.8200   -3.4171 C   0  0  0  0  0  4           0  0  0
  1  7  1  0     0  0
  2 22  2  0     0  0
  3 22  1  0     0  0
  4 23  1  0     0  0
  5  8  1  0     0  0
  5  9  1  0     0  0
  5 24  1  0     0  0
  6  7  1  0     0  0
  6  8  2  0     0  0
  7  9  2  0     0  0
  8 25  1  0     0  0
  9 23  1  0     0  0
 10 11  1  0     0  0
 10 12  1  0     0  0
 10 14  2  0     0  0
 11 15  2  0     0  0
 11 16  1  0     0  0
 12 17  2  0     0  0
 12 22  1  0     0  0
 13 18  2  0     0  0
 13 19  1  0     0  0
 13 24  1  0     0  0
 14 20  1  0     0  0
 15 18  1  0     0  0
 16 19  2  0     0  0
 17 21  1  0     0  0
 20 21  2  0     0  0
 25 26  1  0     0  0
 26 27  1  0     0  0
 27 28  1  0     0  0
M  END
> <standard_type>
pIC50

> <# Confs.>
25

> <canonical_smiles>
ClC(N=C1CCCC)=C(CO)N1CC2=CC=C(C3=CC=CC=C3C(O)=O)C=C2

> <standard_relation>
=

> <Publication_ID>
nan

> <predicted_activity_value>
5.0

> <actual_activity_value>
4.958607314841775

> <Compound>
20

> <standard_units>
nM

> hash
4469256553819631414

$$$$
19
XXILIB    08252103513D 0   0.00000     0.00000

 28 30  0     1  0            999 V2000
    5.0074   -1.4914   -0.0122 Cl  0  0  0  0  0  1           0  0  0
   -0.3420   -2.5128    5.5965 O   0  0  0  0  0  2           0  0  0
   -2.4418   -3.3554    5.8753 O   0  0  0  0  0  2           0  0  0
    1.6390   -2.9308   -1.3457 O   0  0  0  0  0  2           0  0  0
    1.4523    0.0000    0.0000 N   0  0  0  0  0  3           0  0  0
    3.5393    0.7630   -0.0025 N   0  0  0  0  0  3           0  0  0
    3.5500   -0.6068   -0.0019 C   0  0  0  0  0  4           0  0  0
    2.2690    1.1150   -0.0000 C   0  0  0  0  0  4           0  0  0
    2.2653   -1.1171    0.0044 C   0  0  0  0  0  4           0  0  0
   -2.1342    0.0438    5.3886 C   0  0  0  0  0  4           0  0  0
   -1.5911    0.0286    4.0236 C   0  0  0  0  0  4           0  0  0
   -2.1342   -1.0800    6.2438 C   0  0  0  0  0  4           0  0  0
   -0.5425    0.0000    1.3966 C   0  0  0  0  0  4           0  0  0
   -2.7193    1.2260    5.8856 C   0  0  0  0  0  4           0  0  0
   -2.1116   -0.8395    3.0522 C   0  0  0  0  0  4           0  0  0
   -0.5409    0.8844    3.6602 C   0  0  0  0  0  4           0  0  0
   -2.7167   -1.0291    7.5185 C   0  0  0  0  0  4           0  0  0
   -1.5950   -0.8519    1.7533 C   0  0  0  0  0  4           0  0  0
   -0.0240    0.8721    2.3617 C   0  0  0  0  0  4           0  0  0
   -3.2883    1.2815    7.1615 C   0  0  0  0  0  4           0  0  0
   -3.2903    0.1538    7.9750 C   0  0  0  0  0  4           0  0  0
   -1.5209   -2.3660    5.8715 C   0  0  0  0  0  4           0  0  0
    1.7796   -2.5134    0.0058 C   0  0  0  0  0  4           0  0  0
   -0.0000    0.0000    0.0000 C   0  0  0  0  0  4           0  0  0
    1.7859    2.5228   -0.0017 C   0  0  0  0  0  4           0  0  0
    2.5417    3.3953   -0.9988 C   0  0  0  0  0  4           0  0  0
    2.4334    2.9280   -2.4506 C   0  0  0  0  0  4           0  0  0
    3.1982    3.8200   -3.4171 C   0  0  0  0  0  4           0  0  0
  1  7  1  0     0  0
  2 22  2  0     0  0
  3 22  1  0     0  0
  4 23  1  0     0  0
  5  8  1  0     0  0
  5  9  1  0     0  0
  5 24  1  0     0  0
  6  7  1  0     0  0
  6  8  2  0     0  0
  7  9  2  0     0  0
  8 25  1  0     0  0
  9 23  1  0     0  0
 10 11  1  0     0  0
 10 12  1  0     0  0
 10 14  2  0     0  0
 11 15  2  0     0  0
 11 16  1  0     0  0
 12 17  2  0     0  0
 12 22  1  0     0  0
 13 18  2  0     0  0
 13 19  1  0     0  0
 13 24  1  0     0  0
 14 20  1  0     0  0
 15 18  1  0     0  0
 16 19  2  0     0  0
 17 21  1  0     0  0
 20 21  2  0     0  0
 25 26  1  0     0  0
 26 27  1  0     0  0
 27 28  1  0     0  0
M  END
> <standard_type>
pIC50

> <# Confs.>
25

> <canonical_smiles>
ClC(N=C1CCCC)=C(CO)N1CC2=CC=C(C3=CC=CC=C3C(O)=O)C=C2

> <standard_relation>
=

> <Publication_ID>
nan

> <predicted_activity_value>
5.0

> <actual_activity_value>
4.958607314841775

> <Compound>
20

> <standard_units>
nM

> hash
4469256553819631414

$$$$
19
XXILIB    08252103513D 0   0.00000     0.00000

 28 30  0     1  0            999 V2000
    5.0074   -1.4914   -0.0122 Cl  0  0  0  0  0  1           0  0  0
   -3.4032    2.6589    4.2298 O   0  0  0  0  0  2           0  0  0
   -5.2361    1.4422    4.8267 O   0  0  0  0  0  2           0  0  0
    1.6390   -2.9308   -1.3457 O   0  0  0  0  0  2           0  0  0
    1.4523    0.0000    0.0000 N   0  0  0  0  0  3           0  0  0
    3.5393    0.7630   -0.0025 N   0  0  0  0  0  3           0  0  0
    3.5500   -0.6068   -0.0019 C   0  0  0  0  0  4           0  0  0
    2.2690    1.1150   -0.0000 C   0  0  0  0  0  4           0  0  0
    2.2653   -1.1171    0.0044 C   0  0  0  0  0  4           0  0  0
   -2.1342    0.0438    5.3886 C   0  0  0  0  0  4           0  0  0
   -1.5911    0.0286    4.0236 C   0  0  0  0  0  4           0  0  0
   -3.2008    0.8743    5.7976 C   0  0  0  0  0  4           0  0  0
   -0.5425    0.0000    1.3966 C   0  0  0  0  0  4           0  0  0
   -1.5571   -0.7866    6.3705 C   0  0  0  0  0  4           0  0  0
   -2.1116   -0.8395    3.0522 C   0  0  0  0  0  4           0  0  0
   -0.5409    0.8844    3.6602 C   0  0  0  0  0  4           0  0  0
   -3.6452    0.8923    7.1276 C   0  0  0  0  0  4           0  0  0
   -1.5950   -0.8519    1.7533 C   0  0  0  0  0  4           0  0  0
   -0.0240    0.8721    2.3617 C   0  0  0  0  0  4           0  0  0
   -2.0085   -0.7791    7.6938 C   0  0  0  0  0  4           0  0  0
   -3.0486    0.0626    8.0722 C   0  0  0  0  0  4           0  0  0
   -3.9232    1.7605    4.8694 C   0  0  0  0  0  4           0  0  0
    1.7796   -2.5134    0.0058 C   0  0  0  0  0  4           0  0  0
   -0.0000    0.0000    0.0000 C   0  0  0  0  0  4           0  0  0
    1.7859    2.5228   -0.0017 C   0  0  0  0  0  4           0  0  0
    2.5417    3.3953   -0.9988 C   0  0  0  0  0  4           0  0  0
    2.0789    4.8521   -1.0356 C   0  0  0  0  0  4           0  0  0
    2.8532    5.6928   -2.0399 C   0  0  0  0  0  4           0  0  0
  1  7  1  0     0  0
  2 22  2  0     0  0
  3 22  1  0     0  0
  4 23  1  0     0  0
  5  8  1  0     0  0
  5  9  1  0     0  0
  5 24  1  0     0  0
  6  7  1  0     0  0
  6  8  2  0     0  0
  7  9  2  0     0  0
  8 25  1  0     0  0
  9 23  1  0     0  0
 10 11  1  0     0  0
 10 12  1  0     0  0
 10 14  2  0     0  0
 11 15  2  0     0  0
 11 16  1  0     0  0
 12 17  2  0     0  0
 12 22  1  0     0  0
 13 18  2  0     0  0
 13 19  1  0     0  0
 13 24  1  0     0  0
 14 20  1  0     0  0
 15 18  1  0     0  0
 16 19  2  0     0  0
 17 21  1  0     0  0
 20 21  2  0     0  0
 25 26  1  0     0  0
 26 27  1  0     0  0
 27 28  1  0     0  0
M  END
> <standard_type>
pIC50

> <# Confs.>
25

> <canonical_smiles>
ClC(N=C1CCCC)=C(CO)N1CC2=CC=C(C3=CC=CC=C3C(O)=O)C=C2

> <standard_relation>
=

> <Publication_ID>
nan

> <predicted_activity_value>
5.0

> <actual_activity_value>
4.958607314841775

> <Compound>
20

> <standard_units>
nM

> hash
4469256553819631414

$$$$
19
XXILIB    08252103513D 0   0.00000     0.00000

 28 30  0     1  0            999 V2000
    5.0074   -1.4914   -0.0122 Cl  0  0  0  0  0  1           0  0  0
   -4.6018   -1.0254    3.9373 O   0  0  0  0  0  2           0  0  0
   -5.2861    0.9787    4.7809 O   0  0  0  0  0  2           0  0  0
    0.7351   -2.6159   -0.9528 O   0  0  0  0  0  2           0  0  0
    1.4523    0.0000    0.0000 N   0  0  0  0  0  3           0  0  0
    3.5393    0.7630   -0.0025 N   0  0  0  0  0  3           0  0  0
    3.5500   -0.6068   -0.0019 C   0  0  0  0  0  4           0  0  0
    2.2690    1.1150   -0.0000 C   0  0  0  0  0  4           0  0  0
    2.2653   -1.1171    0.0044 C   0  0  0  0  0  4           0  0  0
   -2.0446   -0.0040    5.4234 C   0  0  0  0  0  4           0  0  0
   -1.5306   -0.0017    4.0471 C   0  0  0  0  0  4           0  0  0
   -3.4195   -0.0176    5.7457 C   0  0  0  0  0  4           0  0  0
   -0.5425    0.0000    1.3966 C   0  0  0  0  0  4           0  0  0
   -1.1355    0.0384    6.4998 C   0  0  0  0  0  4           0  0  0
   -1.2915    1.2039    3.3707 C   0  0  0  0  0  4           0  0  0
   -1.2647   -1.2060    3.3790 C   0  0  0  0  0  4           0  0  0
   -3.8595    0.0384    7.0761 C   0  0  0  0  0  4           0  0  0
   -0.8009    1.2048    2.0617 C   0  0  0  0  0  4           0  0  0
   -0.7743   -1.2055    2.0702 C   0  0  0  0  0  4           0  0  0
   -1.5732    0.0806    7.8271 C   0  0  0  0  0  4           0  0  0
   -2.9337    0.0847    8.1141 C   0  0  0  0  0  4           0  0  0
   -4.4774   -0.1029    4.7248 C   0  0  0  0  0  4           0  0  0
    1.7796   -2.5134    0.0058 C   0  0  0  0  0  4           0  0  0
    0.0000    0.0000    0.0000 C   0  0  0  0  0  4           0  0  0
    1.7859    2.5228   -0.0017 C   0  0  0  0  0  4           0  0  0
    2.5417    3.3953   -0.9988 C   0  0  0  0  0  4           0  0  0
    2.4334    2.9280   -2.4506 C   0  0  0  0  0  4           0  0  0
    3.1982    3.8200   -3.4171 C   0  0  0  0  0  4           0  0  0
  1  7  1  0     0  0
  2 22  2  0     0  0
  3 22  1  0     0  0
  4 23  1  0     0  0
  5  8  1  0     0  0
  5  9  1  0     0  0
  5 24  1  0     0  0
  6  7  1  0     0  0
  6  8  2  0     0  0
  7  9  2  0     0  0
  8 25  1  0     0  0
  9 23  1  0     0  0
 10 11  1  0     0  0
 10 12  1  0     0  0
 10 14  2  0     0  0
 11 15  2  0     0  0
 11 16  1  0     0  0
 12 17  2  0     0  0
 12 22  1  0     0  0
 13 18  2  0     0  0
 13 19  1  0     0  0
 13 24  1  0     0  0
 14 20  1  0     0  0
 15 18  1  0     0  0
 16 19  2  0     0  0
 17 21  1  0     0  0
 20 21  2  0     0  0
 25 26  1  0     0  0
 26 27  1  0     0  0
 27 28  1  0     0  0
M  END
> <standard_type>
pIC50

> <# Confs.>
25

> <canonical_smiles>
ClC(N=C1CCCC)=C(CO)N1CC2=CC=C(C3=CC=CC=C3C(O)=O)C=C2

> <standard_relation>
=

> <Publication_ID>
nan

> <predicted_activity_value>
5.0

> <actual_activity_value>
4.958607314841775

> <Compound>
20

> <standard_units>
nM

> hash
4469256553819631414

$$$$
19
XXILIB    08252103513D 0   0.00000     0.00000

 28 30  0     1  0            999 V2000
    5.0074    1.4914    0.0122 Cl  0  0  0  0  0  1           0  0  0
   -0.0474    2.5414    6.1431 O   0  0  0  0  0  2           0  0  0
    0.9531    0.5215    6.4832 O   0  0  0  0  0  2           0  0  0
    1.6390    2.9308    1.3457 O   0  0  0  0  0  2           0  0  0
    1.4523    0.0000    0.0000 N   0  0  0  0  0  3           0  0  0
    3.5393   -0.7630    0.0025 N   0  0  0  0  0  3           0  0  0
    3.5500    0.6068    0.0019 C   0  0  0  0  0  4           0  0  0
    2.2690   -1.1150    0.0000 C   0  0  0  0  0  4           0  0  0
    2.2653    1.1171   -0.0044 C   0  0  0  0  0  4           0  0  0
   -2.0446   -0.0040    5.4234 C   0  0  0  0  0  4           0  0  0
   -1.5306   -0.0017    4.0471 C   0  0  0  0  0  4           0  0  0
   -1.3710    0.5931    6.5117 C   0  0  0  0  0  4           0  0  0
   -0.5425    0.0000    1.3966 C   0  0  0  0  0  4           0  0  0
   -3.2617   -0.6569    5.7047 C   0  0  0  0  0  4           0  0  0
   -1.2915    1.2039    3.3707 C   0  0  0  0  0  4           0  0  0
   -1.2647   -1.2060    3.3790 C   0  0  0  0  0  4           0  0  0
   -1.8768    0.5138    7.8173 C   0  0  0  0  0  4           0  0  0
   -0.8009    1.2048    2.0617 C   0  0  0  0  0  4           0  0  0
   -0.7743   -1.2055    2.0702 C   0  0  0  0  0  4           0  0  0
   -3.7735   -0.7247    7.0041 C   0  0  0  0  0  4           0  0  0
   -3.0793   -0.1434    8.0593 C   0  0  0  0  0  4           0  0  0
   -0.1130    1.3428    6.3571 C   0  0  0  0  0  4           0  0  0
    1.7796    2.5134   -0.0058 C   0  0  0  0  0  4           0  0  0
    0.0000    0.0000    0.0000 C   0  0  0  0  0  4           0  0  0
    1.7859   -2.5228    0.0017 C   0  0  0  0  0  4           0  0  0
    2.5394   -3.3969   -0.9956 C   0  0  0  0  0  4           0  0  0
    2.4278   -2.9321   -2.4480 C   0  0  0  0  0  4           0  0  0
    3.1904   -3.8258   -3.4146 C   0  0  0  0  0  4           0  0  0
  1  7  1  0     0  0
  2 22  2  0     0  0
  3 22  1  0     0  0
  4 23  1  0     0  0
  5  8  1  0     0  0
  5  9  1  0     0  0
  5 24  1  0     0  0
  6  7  1  0     0  0
  6  8  2  0     0  0
  7  9  2  0     0  0
  8 25  1  0     0  0
  9 23  1  0     0  0
 10 11  1  0     0  0
 10 12  1  0     0  0
 10 14  2  0     0  0
 11 15  2  0     0  0
 11 16  1  0     0  0
 12 17  2  0     0  0
 12 22  1  0     0  0
 13 18  2  0     0  0
 13 19  1  0     0  0
 13 24  1  0     0  0
 14 20  1  0     0  0
 15 18  1  0     0  0
 16 19  2  0     0  0
 17 21  1  0     0  0
 20 21  2  0     0  0
 25 26  1  0     0  0
 26 27  1  0     0  0
 27 28  1  0     0  0
M  END
> <standard_type>
pIC50

> <# Confs.>
25

> <canonical_smiles>
ClC(N=C1CCCC)=C(CO)N1CC2=CC=C(C3=CC=CC=C3C(O)=O)C=C2

> <standard_relation>
=

> <Publication_ID>
nan

> <predicted_activity_value>
5.0

> <actual_activity_value>
4.958607314841775

> <Compound>
20

> <standard_units>
nM

> hash
4469256553819631414

$$$$
19
XXILIB    08252103513D 0   0.00000     0.00000

 28 30  0     1  0            999 V2000
    5.0074    1.4914    0.0122 Cl  0  0  0  0  0  1           0  0  0
   -4.6018   -1.0254    3.9373 O   0  0  0  0  0  2           0  0  0
   -5.2861    0.9787    4.7809 O   0  0  0  0  0  2           0  0  0
    1.6390    2.9308    1.3457 O   0  0  0  0  0  2           0  0  0
    1.4523   -0.0000    0.0000 N   0  0  0  0  0  3           0  0  0
    3.5393   -0.7630    0.0025 N   0  0  0  0  0  3           0  0  0
    3.5500    0.6068    0.0019 C   0  0  0  0  0  4           0  0  0
    2.2690   -1.1150    0.0000 C   0  0  0  0  0  4           0  0  0
    2.2653    1.1171   -0.0044 C   0  0  0  0  0  4           0  0  0
   -2.0446   -0.0040    5.4234 C   0  0  0  0  0  4           0  0  0
   -1.5306   -0.0017    4.0471 C   0  0  0  0  0  4           0  0  0
   -3.4195   -0.0176    5.7457 C   0  0  0  0  0  4           0  0  0
   -0.5425    0.0000    1.3966 C   0  0  0  0  0  4           0  0  0
   -1.1355    0.0384    6.4998 C   0  0  0  0  0  4           0  0  0
   -1.2915    1.2039    3.3707 C   0  0  0  0  0  4           0  0  0
   -1.2647   -1.2060    3.3790 C   0  0  0  0  0  4           0  0  0
   -3.8595    0.0384    7.0761 C   0  0  0  0  0  4           0  0  0
   -0.8009    1.2048    2.0617 C   0  0  0  0  0  4           0  0  0
   -0.7743   -1.2055    2.0702 C   0  0  0  0  0  4           0  0  0
   -1.5732    0.0806    7.8271 C   0  0  0  0  0  4           0  0  0
   -2.9337    0.0847    8.1141 C   0  0  0  0  0  4           0  0  0
   -4.4774   -0.1029    4.7248 C   0  0  0  0  0  4           0  0  0
    1.7796    2.5134   -0.0058 C   0  0  0  0  0  4           0  0  0
    0.0000    0.0000    0.0000 C   0  0  0  0  0  4           0  0  0
    1.7859   -2.5228    0.0017 C   0  0  0  0  0  4           0  0  0
    2.5417   -3.3953    0.9988 C   0  0  0  0  0  4           0  0  0
    2.0789   -4.8521    1.0356 C   0  0  0  0  0  4           0  0  0
    2.8532   -5.6928    2.0399 C   0  0  0  0  0  4           0  0  0
  1  7  1  0     0  0
  2 22  2  0     0  0
  3 22  1  0     0  0
  4 23  1  0     0  0
  5  8  1  0     0  0
  5  9  1  0     0  0
  5 24  1  0     0  0
  6  7  1  0     0  0
  6  8  2  0     0  0
  7  9  2  0     0  0
  8 25  1  0     0  0
  9 23  1  0     0  0
 10 11  1  0     0  0
 10 12  1  0     0  0
 10 14  2  0     0  0
 11 15  2  0     0  0
 11 16  1  0     0  0
 12 17  2  0     0  0
 12 22  1  0     0  0
 13 18  2  0     0  0
 13 19  1  0     0  0
 13 24  1  0     0  0
 14 20  1  0     0  0
 15 18  1  0     0  0
 16 19  2  0     0  0
 17 21  1  0     0  0
 20 21  2  0     0  0
 25 26  1  0     0  0
 26 27  1  0     0  0
 27 28  1  0     0  0
M  END
> <standard_type>
pIC50

> <# Confs.>
25

> <canonical_smiles>
ClC(N=C1CCCC)=C(CO)N1CC2=CC=C(C3=CC=CC=C3C(O)=O)C=C2

> <standard_relation>
=

> <Publication_ID>
nan

> <predicted_activity_value>
5.0

> <actual_activity_value>
4.958607314841775

> <Compound>
20

> <standard_units>
nM

> hash
4469256553819631414

$$$$
19
XXILIB    08252103513D 0   0.00000     0.00000

 28 30  0     1  0            999 V2000
    5.0074    1.4914    0.0122 Cl  0  0  0  0  0  1           0  0  0
   -0.0474    2.5414    6.1431 O   0  0  0  0  0  2           0  0  0
    0.9531    0.5215    6.4832 O   0  0  0  0  0  2           0  0  0
    1.6390    2.9308    1.3457 O   0  0  0  0  0  2           0  0  0
    1.4523    0.0000    0.0000 N   0  0  0  0  0  3           0  0  0
    3.5393   -0.7630    0.0025 N   0  0  0  0  0  3           0  0  0
    3.5500    0.6068    0.0019 C   0  0  0  0  0  4           0  0  0
    2.2690   -1.1150    0.0000 C   0  0  0  0  0  4           0  0  0
    2.2653    1.1171   -0.0044 C   0  0  0  0  0  4           0  0  0
   -2.0446   -0.0040    5.4234 C   0  0  0  0  0  4           0  0  0
   -1.5306   -0.0017    4.0471 C   0  0  0  0  0  4           0  0  0
   -1.3710    0.5931    6.5117 C   0  0  0  0  0  4           0  0  0
   -0.5425    0.0000    1.3966 C   0  0  0  0  0  4           0  0  0
   -3.2617   -0.6569    5.7047 C   0  0  0  0  0  4           0  0  0
   -1.2915    1.2039    3.3707 C   0  0  0  0  0  4           0  0  0
   -1.2647   -1.2060    3.3790 C   0  0  0  0  0  4           0  0  0
   -1.8768    0.5138    7.8173 C   0  0  0  0  0  4           0  0  0
   -0.8009    1.2048    2.0617 C   0  0  0  0  0  4           0  0  0
   -0.7743   -1.2055    2.0702 C   0  0  0  0  0  4           0  0  0
   -3.7735   -0.7247    7.0041 C   0  0  0  0  0  4           0  0  0
   -3.0793   -0.1434    8.0593 C   0  0  0  0  0  4           0  0  0
   -0.1130    1.3428    6.3571 C   0  0  0  0  0  4           0  0  0
    1.7796    2.5134   -0.0058 C   0  0  0  0  0  4           0  0  0
    0.0000    0.0000    0.0000 C   0  0  0  0  0  4           0  0  0
    1.7859   -2.5228    0.0017 C   0  0  0  0  0  4           0  0  0
    2.5394   -3.3969   -0.9956 C   0  0  0  0  0  4           0  0  0
    2.0766   -4.8538   -1.0289 C   0  0  0  0  0  4           0  0  0
    2.8486   -5.6962   -2.0335 C   0  0  0  0  0  4           0  0  0
  1  7  1  0     0  0
  2 22  2  0     0  0
  3 22  1  0     0  0
  4 23  1  0     0  0
  5  8  1  0     0  0
  5  9  1  0     0  0
  5 24  1  0     0  0
  6  7  1  0     0  0
  6  8  2  0     0  0
  7  9  2  0     0  0
  8 25  1  0     0  0
  9 23  1  0     0  0
 10 11  1  0     0  0
 10 12  1  0     0  0
 10 14  2  0     0  0
 11 15  2  0     0  0
 11 16  1  0     0  0
 12 17  2  0     0  0
 12 22  1  0     0  0
 13 18  2  0     0  0
 13 19  1  0     0  0
 13 24  1  0     0  0
 14 20  1  0     0  0
 15 18  1  0     0  0
 16 19  2  0     0  0
 17 21  1  0     0  0
 20 21  2  0     0  0
 25 26  1  0     0  0
 26 27  1  0     0  0
 27 28  1  0     0  0
M  END
> <standard_type>
pIC50

> <# Confs.>
25

> <canonical_smiles>
ClC(N=C1CCCC)=C(CO)N1CC2=CC=C(C3=CC=CC=C3C(O)=O)C=C2

> <standard_relation>
=

> <Publication_ID>
nan

> <predicted_activity_value>
5.0

> <actual_activity_value>
4.958607314841775

> <Compound>
20

> <standard_units>
nM

> hash
4469256553819631414

$$$$
19
XXILIB    08252103513D 0   0.00000     0.00000

 28 30  0     1  0            999 V2000
    5.0074   -1.4914   -0.0122 Cl  0  0  0  0  0  1           0  0  0
   -4.6431    0.7138    3.8347 O   0  0  0  0  0  2           0  0  0
   -5.2363   -1.2057    4.9118 O   0  0  0  0  0  2           0  0  0
    0.7351   -2.6159   -0.9528 O   0  0  0  0  0  2           0  0  0
    1.4523    0.0000    0.0000 N   0  0  0  0  0  3           0  0  0
    3.5393    0.7630   -0.0025 N   0  0  0  0  0  3           0  0  0
    3.5500   -0.6068   -0.0019 C   0  0  0  0  0  4           0  0  0
    2.2690    1.1150   -0.0000 C   0  0  0  0  0  4           0  0  0
    2.2653   -1.1171    0.0044 C   0  0  0  0  0  4           0  0  0
   -2.0446   -0.0040    5.4234 C   0  0  0  0  0  4           0  0  0
   -1.5306   -0.0017    4.0471 C   0  0  0  0  0  4           0  0  0
   -3.4195   -0.0176    5.7457 C   0  0  0  0  0  4           0  0  0
   -0.5425    0.0000    1.3966 C   0  0  0  0  0  4           0  0  0
   -1.1355    0.0384    6.4998 C   0  0  0  0  0  4           0  0  0
   -1.2915    1.2039    3.3707 C   0  0  0  0  0  4           0  0  0
   -1.2647   -1.2060    3.3790 C   0  0  0  0  0  4           0  0  0
   -3.8595    0.0384    7.0761 C   0  0  0  0  0  4           0  0  0
   -0.8009    1.2048    2.0617 C   0  0  0  0  0  4           0  0  0
   -0.7743   -1.2055    2.0702 C   0  0  0  0  0  4           0  0  0
   -1.5732    0.0806    7.8271 C   0  0  0  0  0  4           0  0  0
   -2.9337    0.0847    8.1141 C   0  0  0  0  0  4           0  0  0
   -4.4774   -0.1029    4.7248 C   0  0  0  0  0  4           0  0  0
    1.7796   -2.5134    0.0058 C   0  0  0  0  0  4           0  0  0
    0.0000    0.0000    0.0000 C   0  0  0  0  0  4           0  0  0
    1.7859    2.5228   -0.0017 C   0  0  0  0  0  4           0  0  0
    2.5417    3.3953   -0.9988 C   0  0  0  0  0  4           0  0  0
    2.0789    4.8521   -1.0356 C   0  0  0  0  0  4           0  0  0
    2.8532    5.6928   -2.0399 C   0  0  0  0  0  4           0  0  0
  1  7  1  0     0  0
  2 22  2  0     0  0
  3 22  1  0     0  0
  4 23  1  0     0  0
  5  8  1  0     0  0
  5  9  1  0     0  0
  5 24  1  0     0  0
  6  7  1  0     0  0
  6  8  2  0     0  0
  7  9  2  0     0  0
  8 25  1  0     0  0
  9 23  1  0     0  0
 10 11  1  0     0  0
 10 12  1  0     0  0
 10 14  2  0     0  0
 11 15  2  0     0  0
 11 16  1  0     0  0
 12 17  2  0     0  0
 12 22  1  0     0  0
 13 18  2  0     0  0
 13 19  1  0     0  0
 13 24  1  0     0  0
 14 20  1  0     0  0
 15 18  1  0     0  0
 16 19  2  0     0  0
 17 21  1  0     0  0
 20 21  2  0     0  0
 25 26  1  0     0  0
 26 27  1  0     0  0
 27 28  1  0     0  0
M  END
> <standard_type>
pIC50

> <# Confs.>
25

> <canonical_smiles>
ClC(N=C1CCCC)=C(CO)N1CC2=CC=C(C3=CC=CC=C3C(O)=O)C=C2

> <standard_relation>
=

> <Publication_ID>
nan

> <predicted_activity_value>
5.0

> <actual_activity_value>
4.958607314841775

> <Compound>
20

> <standard_units>
nM

> hash
4469256553819631414

$$$$
19
XXILIB    08252103513D 0   0.00000     0.00000

 28 30  0     1  0            999 V2000
    5.0074   -1.4914   -0.0122 Cl  0  0  0  0  0  1           0  0  0
   -0.3420   -2.5128    5.5965 O   0  0  0  0  0  2           0  0  0
   -2.4418   -3.3554    5.8753 O   0  0  0  0  0  2           0  0  0
    1.6390   -2.9308   -1.3457 O   0  0  0  0  0  2           0  0  0
    1.4523    0.0000    0.0000 N   0  0  0  0  0  3           0  0  0
    3.5393    0.7630   -0.0025 N   0  0  0  0  0  3           0  0  0
    3.5500   -0.6068   -0.0019 C   0  0  0  0  0  4           0  0  0
    2.2690    1.1150   -0.0000 C   0  0  0  0  0  4           0  0  0
    2.2653   -1.1171    0.0044 C   0  0  0  0  0  4           0  0  0
   -2.1342    0.0438    5.3886 C   0  0  0  0  0  4           0  0  0
   -1.5911    0.0286    4.0236 C   0  0  0  0  0  4           0  0  0
   -2.1342   -1.0800    6.2438 C   0  0  0  0  0  4           0  0  0
   -0.5425    0.0000    1.3966 C   0  0  0  0  0  4           0  0  0
   -2.7193    1.2260    5.8856 C   0  0  0  0  0  4           0  0  0
   -2.1116   -0.8395    3.0522 C   0  0  0  0  0  4           0  0  0
   -0.5409    0.8844    3.6602 C   0  0  0  0  0  4           0  0  0
   -2.7167   -1.0291    7.5185 C   0  0  0  0  0  4           0  0  0
   -1.5950   -0.8519    1.7533 C   0  0  0  0  0  4           0  0  0
   -0.0240    0.8721    2.3617 C   0  0  0  0  0  4           0  0  0
   -3.2883    1.2815    7.1615 C   0  0  0  0  0  4           0  0  0
   -3.2903    0.1538    7.9750 C   0  0  0  0  0  4           0  0  0
   -1.5209   -2.3660    5.8715 C   0  0  0  0  0  4           0  0  0
    1.7796   -2.5134    0.0058 C   0  0  0  0  0  4           0  0  0
   -0.0000    0.0000    0.0000 C   0  0  0  0  0  4           0  0  0
    1.7859    2.5228   -0.0017 C   0  0  0  0  0  4           0  0  0
    2.5417    3.3953   -0.9988 C   0  0  0  0  0  4           0  0  0
    2.0789    4.8521   -1.0356 C   0  0  0  0  0  4           0  0  0
    2.8532    5.6928   -2.0399 C   0  0  0  0  0  4           0  0  0
  1  7  1  0     0  0
  2 22  2  0     0  0
  3 22  1  0     0  0
  4 23  1  0     0  0
  5  8  1  0     0  0
  5  9  1  0     0  0
  5 24  1  0     0  0
  6  7  1  0     0  0
  6  8  2  0     0  0
  7  9  2  0     0  0
  8 25  1  0     0  0
  9 23  1  0     0  0
 10 11  1  0     0  0
 10 12  1  0     0  0
 10 14  2  0     0  0
 11 15  2  0     0  0
 11 16  1  0     0  0
 12 17  2  0     0  0
 12 22  1  0     0  0
 13 18  2  0     0  0
 13 19  1  0     0  0
 13 24  1  0     0  0
 14 20  1  0     0  0
 15 18  1  0     0  0
 16 19  2  0     0  0
 17 21  1  0     0  0
 20 21  2  0     0  0
 25 26  1  0     0  0
 26 27  1  0     0  0
 27 28  1  0     0  0
M  END
> <standard_type>
pIC50

> <# Confs.>
25

> <canonical_smiles>
ClC(N=C1CCCC)=C(CO)N1CC2=CC=C(C3=CC=CC=C3C(O)=O)C=C2

> <standard_relation>
=

> <Publication_ID>
nan

> <predicted_activity_value>
5.0

> <actual_activity_value>
4.958607314841775

> <Compound>
20

> <standard_units>
nM

> hash
4469256553819631414

$$$$
19
XXILIB    08252103513D 0   0.00000     0.00000

 28 30  0     1  0            999 V2000
    5.0074    1.4914    0.0122 Cl  0  0  0  0  0  1           0  0  0
   -4.6018   -1.0254    3.9373 O   0  0  0  0  0  2           0  0  0
   -5.2861    0.9787    4.7809 O   0  0  0  0  0  2           0  0  0
    1.6390    2.9308    1.3457 O   0  0  0  0  0  2           0  0  0
    1.4523   -0.0000    0.0000 N   0  0  0  0  0  3           0  0  0
    3.5393   -0.7630    0.0025 N   0  0  0  0  0  3           0  0  0
    3.5500    0.6068    0.0019 C   0  0  0  0  0  4           0  0  0
    2.2690   -1.1150    0.0000 C   0  0  0  0  0  4           0  0  0
    2.2653    1.1171   -0.0044 C   0  0  0  0  0  4           0  0  0
   -2.0446   -0.0040    5.4234 C   0  0  0  0  0  4           0  0  0
   -1.5306   -0.0017    4.0471 C   0  0  0  0  0  4           0  0  0
   -3.4195   -0.0176    5.7457 C   0  0  0  0  0  4           0  0  0
   -0.5425    0.0000    1.3966 C   0  0  0  0  0  4           0  0  0
   -1.1355    0.0384    6.4998 C   0  0  0  0  0  4           0  0  0
   -1.2915    1.2039    3.3707 C   0  0  0  0  0  4           0  0  0
   -1.2647   -1.2060    3.3790 C   0  0  0  0  0  4           0  0  0
   -3.8595    0.0384    7.0761 C   0  0  0  0  0  4           0  0  0
   -0.8009    1.2048    2.0617 C   0  0  0  0  0  4           0  0  0
   -0.7743   -1.2055    2.0702 C   0  0  0  0  0  4           0  0  0
   -1.5732    0.0806    7.8271 C   0  0  0  0  0  4           0  0  0
   -2.9337    0.0847    8.1141 C   0  0  0  0  0  4           0  0  0
   -4.4774   -0.1029    4.7248 C   0  0  0  0  0  4           0  0  0
    1.7796    2.5134   -0.0058 C   0  0  0  0  0  4           0  0  0
    0.0000    0.0000    0.0000 C   0  0  0  0  0  4           0  0  0
    1.7859   -2.5228    0.0017 C   0  0  0  0  0  4           0  0  0
    2.5417   -3.3953    0.9988 C   0  0  0  0  0  4           0  0  0
    2.4334   -2.9280    2.4506 C   0  0  0  0  0  4           0  0  0
    3.1982   -3.8200    3.4171 C   0  0  0  0  0  4           0  0  0
  1  7  1  0     0  0
  2 22  2  0     0  0
  3 22  1  0     0  0
  4 23  1  0     0  0
  5  8  1  0     0  0
  5  9  1  0     0  0
  5 24  1  0     0  0
  6  7  1  0     0  0
  6  8  2  0     0  0
  7  9  2  0     0  0
  8 25  1  0     0  0
  9 23  1  0     0  0
 10 11  1  0     0  0
 10 12  1  0     0  0
 10 14  2  0     0  0
 11 15  2  0     0  0
 11 16  1  0     0  0
 12 17  2  0     0  0
 12 22  1  0     0  0
 13 18  2  0     0  0
 13 19  1  0     0  0
 13 24  1  0     0  0
 14 20  1  0     0  0
 15 18  1  0     0  0
 16 19  2  0     0  0
 17 21  1  0     0  0
 20 21  2  0     0  0
 25 26  1  0     0  0
 26 27  1  0     0  0
 27 28  1  0     0  0
M  END
> <standard_type>
pIC50

> <# Confs.>
25

> <canonical_smiles>
ClC(N=C1CCCC)=C(CO)N1CC2=CC=C(C3=CC=CC=C3C(O)=O)C=C2

> <standard_relation>
=

> <Publication_ID>
nan

> <predicted_activity_value>
5.0

> <actual_activity_value>
4.958607314841775

> <Compound>
20

> <standard_units>
nM

> hash
4469256553819631414

$$$$
19
XXILIB    08252103513D 0   0.00000     0.00000

 28 30  0     1  0            999 V2000
    5.0074    1.4914    0.0122 Cl  0  0  0  0  0  1           0  0  0
   -4.7156    0.5693    3.8976 O   0  0  0  0  0  2           0  0  0
   -4.4169    2.4777    5.1081 O   0  0  0  0  0  2           0  0  0
    1.6390    2.9308    1.3457 O   0  0  0  0  0  2           0  0  0
    1.4523    0.0000    0.0000 N   0  0  0  0  0  3           0  0  0
    3.5393   -0.7630    0.0025 N   0  0  0  0  0  3           0  0  0
    3.5500    0.6068    0.0019 C   0  0  0  0  0  4           0  0  0
    2.2690   -1.1150    0.0000 C   0  0  0  0  0  4           0  0  0
    2.2653    1.1171   -0.0044 C   0  0  0  0  0  4           0  0  0
   -2.0446   -0.0040    5.4234 C   0  0  0  0  0  4           0  0  0
   -1.5306   -0.0017    4.0471 C   0  0  0  0  0  4           0  0  0
   -3.2781    0.5717    5.7995 C   0  0  0  0  0  4           0  0  0
   -0.5425    0.0000    1.3966 C   0  0  0  0  0  4           0  0  0
   -1.2689   -0.5815    6.4490 C   0  0  0  0  0  4           0  0  0
   -1.2915    1.2039    3.3707 C   0  0  0  0  0  4           0  0  0
   -1.2647   -1.2060    3.3790 C   0  0  0  0  0  4           0  0  0
   -3.6975    0.5933    7.1375 C   0  0  0  0  0  4           0  0  0
   -0.8009    1.2048    2.0617 C   0  0  0  0  0  4           0  0  0
   -0.7743   -1.2055    2.0702 C   0  0  0  0  0  4           0  0  0
   -1.6926   -0.5725    7.7814 C   0  0  0  0  0  4           0  0  0
   -2.9036    0.0180    8.1252 C   0  0  0  0  0  4           0  0  0
   -4.2076    1.1721    4.8278 C   0  0  0  0  0  4           0  0  0
    1.7796    2.5134   -0.0058 C   0  0  0  0  0  4           0  0  0
    0.0000    0.0000    0.0000 C   0  0  0  0  0  4           0  0  0
    1.7859   -2.5228    0.0017 C   0  0  0  0  0  4           0  0  0
    2.5394   -3.3969   -0.9956 C   0  0  0  0  0  4           0  0  0
    2.4278   -2.9321   -2.4480 C   0  0  0  0  0  4           0  0  0
    0.9921   -2.9042   -2.9508 C   0  0  0  0  0  4           0  0  0
  1  7  1  0     0  0
  2 22  2  0     0  0
  3 22  1  0     0  0
  4 23  1  0     0  0
  5  8  1  0     0  0
  5  9  1  0     0  0
  5 24  1  0     0  0
  6  7  1  0     0  0
  6  8  2  0     0  0
  7  9  2  0     0  0
  8 25  1  0     0  0
  9 23  1  0     0  0
 10 11  1  0     0  0
 10 12  1  0     0  0
 10 14  2  0     0  0
 11 15  2  0     0  0
 11 16  1  0     0  0
 12 17  2  0     0  0
 12 22  1  0     0  0
 13 18  2  0     0  0
 13 19  1  0     0  0
 13 24  1  0     0  0
 14 20  1  0     0  0
 15 18  1  0     0  0
 16 19  2  0     0  0
 17 21  1  0     0  0
 20 21  2  0     0  0
 25 26  1  0     0  0
 26 27  1  0     0  0
 27 28  1  0     0  0
M  END
> <standard_type>
pIC50

> <# Confs.>
25

> <canonical_smiles>
ClC(N=C1CCCC)=C(CO)N1CC2=CC=C(C3=CC=CC=C3C(O)=O)C=C2

> <standard_relation>
=

> <Publication_ID>
nan

> <predicted_activity_value>
5.0

> <actual_activity_value>
4.958607314841775

> <Compound>
20

> <standard_units>
nM

> hash
4469256553819631414

$$$$
19
XXILIB    08252103513D 0   0.00000     0.00000

 28 30  0     1  0            999 V2000
    5.0074   -1.4914   -0.0122 Cl  0  0  0  0  0  1           0  0  0
   -4.6018   -1.0254    3.9373 O   0  0  0  0  0  2           0  0  0
   -5.2861    0.9787    4.7809 O   0  0  0  0  0  2           0  0  0
    0.7351   -2.6159   -0.9528 O   0  0  0  0  0  2           0  0  0
    1.4523    0.0000    0.0000 N   0  0  0  0  0  3           0  0  0
    3.5393    0.7630   -0.0025 N   0  0  0  0  0  3           0  0  0
    3.5500   -0.6068   -0.0019 C   0  0  0  0  0  4           0  0  0
    2.2690    1.1150   -0.0000 C   0  0  0  0  0  4           0  0  0
    2.2653   -1.1171    0.0044 C   0  0  0  0  0  4           0  0  0
   -2.0446   -0.0040    5.4234 C   0  0  0  0  0  4           0  0  0
   -1.5306   -0.0017    4.0471 C   0  0  0  0  0  4           0  0  0
   -3.4195   -0.0176    5.7457 C   0  0  0  0  0  4           0  0  0
   -0.5425    0.0000    1.3966 C   0  0  0  0  0  4           0  0  0
   -1.1355    0.0384    6.4998 C   0  0  0  0  0  4           0  0  0
   -1.2915    1.2039    3.3707 C   0  0  0  0  0  4           0  0  0
   -1.2647   -1.2060    3.3790 C   0  0  0  0  0  4           0  0  0
   -3.8595    0.0384    7.0761 C   0  0  0  0  0  4           0  0  0
   -0.8009    1.2048    2.0617 C   0  0  0  0  0  4           0  0  0
   -0.7743   -1.2055    2.0702 C   0  0  0  0  0  4           0  0  0
   -1.5732    0.0806    7.8271 C   0  0  0  0  0  4           0  0  0
   -2.9337    0.0847    8.1141 C   0  0  0  0  0  4           0  0  0
   -4.4774   -0.1029    4.7248 C   0  0  0  0  0  4           0  0  0
    1.7796   -2.5134    0.0058 C   0  0  0  0  0  4           0  0  0
    0.0000    0.0000    0.0000 C   0  0  0  0  0  4           0  0  0
    1.7859    2.5228   -0.0017 C   0  0  0  0  0  4           0  0  0
    2.5417    3.3953   -0.9988 C   0  0  0  0  0  4           0  0  0
    2.0789    4.8521   -1.0356 C   0  0  0  0  0  4           0  0  0
    2.8532    5.6928   -2.0399 C   0  0  0  0  0  4           0  0  0
  1  7  1  0     0  0
  2 22  2  0     0  0
  3 22  1  0     0  0
  4 23  1  0     0  0
  5  8  1  0     0  0
  5  9  1  0     0  0
  5 24  1  0     0  0
  6  7  1  0     0  0
  6  8  2  0     0  0
  7  9  2  0     0  0
  8 25  1  0     0  0
  9 23  1  0     0  0
 10 11  1  0     0  0
 10 12  1  0     0  0
 10 14  2  0     0  0
 11 15  2  0     0  0
 11 16  1  0     0  0
 12 17  2  0     0  0
 12 22  1  0     0  0
 13 18  2  0     0  0
 13 19  1  0     0  0
 13 24  1  0     0  0
 14 20  1  0     0  0
 15 18  1  0     0  0
 16 19  2  0     0  0
 17 21  1  0     0  0
 20 21  2  0     0  0
 25 26  1  0     0  0
 26 27  1  0     0  0
 27 28  1  0     0  0
M  END
> <standard_type>
pIC50

> <# Confs.>
25

> <canonical_smiles>
ClC(N=C1CCCC)=C(CO)N1CC2=CC=C(C3=CC=CC=C3C(O)=O)C=C2

> <standard_relation>
=

> <Publication_ID>
nan

> <predicted_activity_value>
5.0

> <actual_activity_value>
4.958607314841775

> <Compound>
20

> <standard_units>
nM

> hash
4469256553819631414

$$$$
19
XXILIB    08252103513D 0   0.00000     0.00000

 28 30  0     1  0            999 V2000
    5.0074    1.4914    0.0122 Cl  0  0  0  0  0  1           0  0  0
    0.9600   -0.7200    5.9247 O   0  0  0  0  0  2           0  0  0
    0.6999    1.1956    7.1327 O   0  0  0  0  0  2           0  0  0
    1.6390    2.9308    1.3457 O   0  0  0  0  0  2           0  0  0
    1.4523    0.0000    0.0000 N   0  0  0  0  0  3           0  0  0
    3.5393   -0.7630    0.0025 N   0  0  0  0  0  3           0  0  0
    3.5500    0.6068    0.0019 C   0  0  0  0  0  4           0  0  0
    2.2690   -1.1150    0.0000 C   0  0  0  0  0  4           0  0  0
    2.2653    1.1171   -0.0044 C   0  0  0  0  0  4           0  0  0
   -2.0446   -0.0040    5.4234 C   0  0  0  0  0  4           0  0  0
   -1.5306   -0.0017    4.0471 C   0  0  0  0  0  4           0  0  0
   -1.2174    0.0071    6.5680 C   0  0  0  0  0  4           0  0  0
   -0.5425    0.0000    1.3966 C   0  0  0  0  0  4           0  0  0
   -3.4366   -0.0486    5.6404 C   0  0  0  0  0  4           0  0  0
   -1.2915    1.2039    3.3707 C   0  0  0  0  0  4           0  0  0
   -1.2647   -1.2060    3.3790 C   0  0  0  0  0  4           0  0  0
   -1.7571   -0.0533    7.8611 C   0  0  0  0  0  4           0  0  0
   -0.8009    1.2048    2.0617 C   0  0  0  0  0  4           0  0  0
   -0.7743   -1.2055    2.0702 C   0  0  0  0  0  4           0  0  0
   -3.9760   -0.0952    6.9295 C   0  0  0  0  0  4           0  0  0
   -3.1366   -0.1017    8.0380 C   0  0  0  0  0  4           0  0  0
    0.2506    0.0942    6.4908 C   0  0  0  0  0  4           0  0  0
    1.7796    2.5134   -0.0058 C   0  0  0  0  0  4           0  0  0
    0.0000    0.0000    0.0000 C   0  0  0  0  0  4           0  0  0
    1.7859   -2.5228    0.0017 C   0  0  0  0  0  4           0  0  0
    2.5394   -3.3969   -0.9956 C   0  0  0  0  0  4           0  0  0
    2.4278   -2.9321   -2.4480 C   0  0  0  0  0  4           0  0  0
    3.1904   -3.8258   -3.4146 C   0  0  0  0  0  4           0  0  0
  1  7  1  0     0  0
  2 22  2  0     0  0
  3 22  1  0     0  0
  4 23  1  0     0  0
  5  8  1  0     0  0
  5  9  1  0     0  0
  5 24  1  0     0  0
  6  7  1  0     0  0
  6  8  2  0     0  0
  7  9  2  0     0  0
  8 25  1  0     0  0
  9 23  1  0     0  0
 10 11  1  0     0  0
 10 12  1  0     0  0
 10 14  2  0     0  0
 11 15  2  0     0  0
 11 16  1  0     0  0
 12 17  2  0     0  0
 12 22  1  0     0  0
 13 18  2  0     0  0
 13 19  1  0     0  0
 13 24  1  0     0  0
 14 20  1  0     0  0
 15 18  1  0     0  0
 16 19  2  0     0  0
 17 21  1  0     0  0
 20 21  2  0     0  0
 25 26  1  0     0  0
 26 27  1  0     0  0
 27 28  1  0     0  0
M  END
> <standard_type>
pIC50

> <# Confs.>
25

> <canonical_smiles>
ClC(N=C1CCCC)=C(CO)N1CC2=CC=C(C3=CC=CC=C3C(O)=O)C=C2

> <standard_relation>
=

> <Publication_ID>
nan

> <predicted_activity_value>
5.0

> <actual_activity_value>
4.958607314841775

> <Compound>
20

> <standard_units>
nM

> hash
4469256553819631414

$$$$
19
XXILIB    08252103513D 0   0.00000     0.00000

 28 30  0     1  0            999 V2000
    5.0074    1.4914    0.0122 Cl  0  0  0  0  0  1           0  0  0
    0.9600   -0.7200    5.9247 O   0  0  0  0  0  2           0  0  0
    0.6999    1.1956    7.1327 O   0  0  0  0  0  2           0  0  0
    1.6390    2.9308    1.3457 O   0  0  0  0  0  2           0  0  0
    1.4523    0.0000    0.0000 N   0  0  0  0  0  3           0  0  0
    3.5393   -0.7630    0.0025 N   0  0  0  0  0  3           0  0  0
    3.5500    0.6068    0.0019 C   0  0  0  0  0  4           0  0  0
    2.2690   -1.1150    0.0000 C   0  0  0  0  0  4           0  0  0
    2.2653    1.1171   -0.0044 C   0  0  0  0  0  4           0  0  0
   -2.0446   -0.0040    5.4234 C   0  0  0  0  0  4           0  0  0
   -1.5306   -0.0017    4.0471 C   0  0  0  0  0  4           0  0  0
   -1.2174    0.0071    6.5680 C   0  0  0  0  0  4           0  0  0
   -0.5425    0.0000    1.3966 C   0  0  0  0  0  4           0  0  0
   -3.4366   -0.0486    5.6404 C   0  0  0  0  0  4           0  0  0
   -1.2915    1.2039    3.3707 C   0  0  0  0  0  4           0  0  0
   -1.2647   -1.2060    3.3790 C   0  0  0  0  0  4           0  0  0
   -1.7571   -0.0533    7.8611 C   0  0  0  0  0  4           0  0  0
   -0.8009    1.2048    2.0617 C   0  0  0  0  0  4           0  0  0
   -0.7743   -1.2055    2.0702 C   0  0  0  0  0  4           0  0  0
   -3.9760   -0.0952    6.9295 C   0  0  0  0  0  4           0  0  0
   -3.1366   -0.1017    8.0380 C   0  0  0  0  0  4           0  0  0
    0.2506    0.0942    6.4908 C   0  0  0  0  0  4           0  0  0
    1.7796    2.5134   -0.0058 C   0  0  0  0  0  4           0  0  0
    0.0000    0.0000    0.0000 C   0  0  0  0  0  4           0  0  0
    1.7859   -2.5228    0.0017 C   0  0  0  0  0  4           0  0  0
    2.5394   -3.3969   -0.9956 C   0  0  0  0  0  4           0  0  0
    2.0766   -4.8538   -1.0289 C   0  0  0  0  0  4           0  0  0
    2.8486   -5.6962   -2.0335 C   0  0  0  0  0  4           0  0  0
  1  7  1  0     0  0
  2 22  2  0     0  0
  3 22  1  0     0  0
  4 23  1  0     0  0
  5  8  1  0     0  0
  5  9  1  0     0  0
  5 24  1  0     0  0
  6  7  1  0     0  0
  6  8  2  0     0  0
  7  9  2  0     0  0
  8 25  1  0     0  0
  9 23  1  0     0  0
 10 11  1  0     0  0
 10 12  1  0     0  0
 10 14  2  0     0  0
 11 15  2  0     0  0
 11 16  1  0     0  0
 12 17  2  0     0  0
 12 22  1  0     0  0
 13 18  2  0     0  0
 13 19  1  0     0  0
 13 24  1  0     0  0
 14 20  1  0     0  0
 15 18  1  0     0  0
 16 19  2  0     0  0
 17 21  1  0     0  0
 20 21  2  0     0  0
 25 26  1  0     0  0
 26 27  1  0     0  0
 27 28  1  0     0  0
M  END
> <standard_type>
pIC50

> <# Confs.>
25

> <canonical_smiles>
ClC(N=C1CCCC)=C(CO)N1CC2=CC=C(C3=CC=CC=C3C(O)=O)C=C2

> <standard_relation>
=

> <Publication_ID>
nan

> <predicted_activity_value>
5.0

> <actual_activity_value>
4.958607314841775

> <Compound>
20

> <standard_units>
nM

> hash
4469256553819631414

$$$$
19
XXILIB    08252103513D 0   0.00000     0.00000

 28 30  0     1  0            999 V2000
    5.0074    1.4914    0.0122 Cl  0  0  0  0  0  1           0  0  0
   -4.7156    0.5693    3.8976 O   0  0  0  0  0  2           0  0  0
   -4.4169    2.4777    5.1081 O   0  0  0  0  0  2           0  0  0
    1.6390    2.9308    1.3457 O   0  0  0  0  0  2           0  0  0
    1.4523    0.0000    0.0000 N   0  0  0  0  0  3           0  0  0
    3.5393   -0.7630    0.0025 N   0  0  0  0  0  3           0  0  0
    3.5500    0.6068    0.0019 C   0  0  0  0  0  4           0  0  0
    2.2690   -1.1150    0.0000 C   0  0  0  0  0  4           0  0  0
    2.2653    1.1171   -0.0044 C   0  0  0  0  0  4           0  0  0
   -2.0446   -0.0040    5.4234 C   0  0  0  0  0  4           0  0  0
   -1.5306   -0.0017    4.0471 C   0  0  0  0  0  4           0  0  0
   -3.2781    0.5717    5.7995 C   0  0  0  0  0  4           0  0  0
   -0.5425    0.0000    1.3966 C   0  0  0  0  0  4           0  0  0
   -1.2689   -0.5815    6.4490 C   0  0  0  0  0  4           0  0  0
   -1.2915    1.2039    3.3707 C   0  0  0  0  0  4           0  0  0
   -1.2647   -1.2060    3.3790 C   0  0  0  0  0  4           0  0  0
   -3.6975    0.5933    7.1375 C   0  0  0  0  0  4           0  0  0
   -0.8009    1.2048    2.0617 C   0  0  0  0  0  4           0  0  0
   -0.7743   -1.2055    2.0702 C   0  0  0  0  0  4           0  0  0
   -1.6926   -0.5725    7.7814 C   0  0  0  0  0  4           0  0  0
   -2.9036    0.0180    8.1252 C   0  0  0  0  0  4           0  0  0
   -4.2076    1.1721    4.8278 C   0  0  0  0  0  4           0  0  0
    1.7796    2.5134   -0.0058 C   0  0  0  0  0  4           0  0  0
    0.0000    0.0000    0.0000 C   0  0  0  0  0  4           0  0  0
    1.7859   -2.5228    0.0017 C   0  0  0  0  0  4           0  0  0
    2.9313   -3.5301    0.0013 C   0  0  0  0  0  4           0  0  0
    2.4822   -4.9917    0.0030 C   0  0  0  0  0  4           0  0  0
    3.6489   -5.9683    0.0025 C   0  0  0  0  0  4           0  0  0
  1  7  1  0     0  0
  2 22  2  0     0  0
  3 22  1  0     0  0
  4 23  1  0     0  0
  5  8  1  0     0  0
  5  9  1  0     0  0
  5 24  1  0     0  0
  6  7  1  0     0  0
  6  8  2  0     0  0
  7  9  2  0     0  0
  8 25  1  0     0  0
  9 23  1  0     0  0
 10 11  1  0     0  0
 10 12  1  0     0  0
 10 14  2  0     0  0
 11 15  2  0     0  0
 11 16  1  0     0  0
 12 17  2  0     0  0
 12 22  1  0     0  0
 13 18  2  0     0  0
 13 19  1  0     0  0
 13 24  1  0     0  0
 14 20  1  0     0  0
 15 18  1  0     0  0
 16 19  2  0     0  0
 17 21  1  0     0  0
 20 21  2  0     0  0
 25 26  1  0     0  0
 26 27  1  0     0  0
 27 28  1  0     0  0
M  END
> <standard_type>
pIC50

> <# Confs.>
25

> <canonical_smiles>
ClC(N=C1CCCC)=C(CO)N1CC2=CC=C(C3=CC=CC=C3C(O)=O)C=C2

> <standard_relation>
=

> <Publication_ID>
nan

> <predicted_activity_value>
5.0

> <actual_activity_value>
4.958607314841775

> <Compound>
20

> <standard_units>
nM

> hash
4469256553819631414

$$$$
3
XXILIB    08252103513D 0   0.00000     0.00000

 29 32  0     1  0            999 V2000
    0.7645   -2.8634    0.1940 O   0  0  0  0  0  2           0  0  0
    0.5683   -3.4931    6.4606 N   0  0  0  0  0  3           0  0  0
    1.0990   -2.7011    5.5389 N   0  0  0  0  0  3           0  0  0
   -0.5442   -2.8635    6.8608 N   0  0  0  0  0  3           0  0  0
    0.3308   -1.5752    5.3517 N   0  0  0  0  0  3           0  0  0
    1.4767   -0.0000    0.0000 N   0  3  0  0  0  4           0  0  0
    3.6261    0.6348   -0.2220 N   0  0  0  0  0  3           0  0  0
   -0.6892   -1.6852    6.1799 C   0  0  0  0  0  4           0  0  0
   -1.7852   -0.7669    6.3709 C   0  0  0  0  0  4           0  0  0
   -2.2609    0.0561    5.3246 C   0  0  0  0  0  4           0  0  0
   -1.6848    0.0340    3.9858 C   0  0  0  0  0  4           0  0  0
   -0.5728    0.0000    1.3850 C   0  0  0  0  0  4           0  0  0
   -2.3775   -0.6948    7.6424 C   0  0  0  0  0  4           0  0  0
   -3.3317    0.9300    5.5933 C   0  0  0  0  0  4           0  0  0
   -2.1811   -0.8368    3.0043 C   0  0  0  0  0  4           0  0  0
   -0.6246    0.8877    3.6469 C   0  0  0  0  0  4           0  0  0
   -1.6329   -0.8520    1.7186 C   0  0  0  0  0  4           0  0  0
   -0.0763    0.8724    2.3614 C   0  0  0  0  0  4           0  0  0
   -3.4362    0.1790    7.8840 C   0  0  0  0  0  4           0  0  0
   -3.9133    0.9904    6.8605 C   0  0  0  0  0  4           0  0  0
    2.1164   -2.4162    0.1700 C   0  0  0  0  0  4           0  0  0
    2.2979    0.8580   -0.4953 C   0  0  0  0  0  4           0  0  0
    3.6384   -0.4363    0.5016 C   0  0  0  0  0  4           0  0  0
    0.0000    0.0000    0.0000 C   0  0  0  0  0  4           0  0  0
    2.2695   -1.0188    0.7464 C   0  0  1  0  0  4           0  0  0
    1.8632    2.0530   -1.2713 C   0  0  0  0  0  4           0  0  0
    1.7716    1.7262   -2.7575 C   0  0  0  0  0  4           0  0  0
    1.3294    2.9189   -3.5998 C   0  0  0  0  0  4           0  0  0
    1.2378    2.5932   -5.0831 C   0  0  0  0  0  4           0  0  0
  1 21  1  0     0  0
  2  3  2  0     0  0
  2  4  1  0     0  0
  3  5  1  0     0  0
  4  8  1  0     0  0
  5  8  2  0     0  0
  6 22  2  0     0  0
  6 24  1  0     0  0
  6 25  1  0     0  0
  7 22  1  0     0  0
  7 23  2  0     0  0
  8  9  1  0     0  0
  9 10  1  0     0  0
  9 13  2  0     0  0
 10 11  1  0     0  0
 10 14  2  0     0  0
 11 15  2  0     0  0
 11 16  1  0     0  0
 12 17  2  0     0  0
 12 18  1  0     0  0
 12 24  1  0     0  0
 13 19  1  0     0  0
 14 20  1  0     0  0
 15 17  1  0     0  0
 16 18  2  0     0  0
 19 20  2  0     0  0
 21 25  1  0     0  0
 22 26  1  0     0  0
 23 25  1  0     0  0
 26 27  1  0     0  0
 27 28  1  0     0  0
 28 29  1  0     0  0
M  CHG  1   6   1
M  END
> <standard_type>
pIC50

> <# Confs.>
25

> <canonical_smiles>
CCCCC(N=CC1CO)=[N]1CC2=CC=C(C3=CC=CC=C3C4=NN=NN4)C=C2

> <standard_relation>
=

> <Publication_ID>
nan

> <predicted_activity_value>
7.823908740944319

> <actual_activity_value>
7.5376020021010435

> <Compound>
4

> <standard_units>
nM

> hash
11930142815789539851

$$$$
3
XXILIB    08252103513D 0   0.00000     0.00000

 29 32  0     1  0            999 V2000
    1.8066    2.3833   -1.2730 O   0  0  0  0  0  2           0  0  0
    2.2534   -0.3551    6.9478 N   0  0  0  0  0  3           0  0  0
    2.1811    0.3040    5.7995 N   0  0  0  0  0  3           0  0  0
    0.9812   -0.5299    7.3287 N   0  0  0  0  0  3           0  0  0
    0.8730    0.5474    5.4497 N   0  0  0  0  0  3           0  0  0
    1.4768   -0.0000   -0.0000 N   0  3  0  0  0  4           0  0  0
    3.6330   -0.6003   -0.2547 N   0  0  0  0  0  3           0  0  0
    0.1337    0.0254    6.4085 C   0  0  0  0  0  4           0  0  0
   -1.3047    0.0092    6.5162 C   0  0  0  0  0  4           0  0  0
   -2.1389   -0.0014    5.3750 C   0  0  0  0  0  4           0  0  0
   -1.6098   -0.0004    4.0168 C   0  0  0  0  0  4           0  0  0
   -0.5728   -0.0000    1.3850 C   0  0  0  0  0  4           0  0  0
   -1.8748    0.0149    7.7999 C   0  0  0  0  0  4           0  0  0
   -3.5340   -0.0114    5.5648 C   0  0  0  0  0  4           0  0  0
   -1.3598    1.2049    3.3440 C   0  0  0  0  0  4           0  0  0
   -1.3330   -1.2052    3.3539 C   0  0  0  0  0  4           0  0  0
   -0.8455    1.2049    2.0443 C   0  0  0  0  0  4           0  0  0
   -0.8188   -1.2052    2.0543 C   0  0  0  0  0  4           0  0  0
   -3.2591    0.0053    7.9619 C   0  0  0  0  0  4           0  0  0
   -4.0882   -0.0083    6.8457 C   0  0  0  0  0  4           0  0  0
    2.0784    2.4282    0.1243 C   0  0  0  0  0  4           0  0  0
    2.3036   -0.8545   -0.4934 C   0  0  0  0  0  4           0  0  0
    3.6405    0.4811    0.4535 C   0  0  0  0  0  4           0  0  0
    0.0000    0.0000    0.0000 C   0  0  0  0  0  4           0  0  0
    2.2664    1.0423    0.7177 C   0  0  1  0  0  4           0  0  0
    1.8824   -2.0359   -1.2978 C   0  0  0  0  0  4           0  0  0
    1.8234   -1.6849   -2.7802 C   0  0  0  0  0  4           0  0  0
    1.3963   -2.8625   -3.6508 C   0  0  0  0  0  4           0  0  0
    1.3372   -2.5127   -5.1303 C   0  0  0  0  0  4           0  0  0
  1 21  1  0     0  0
  2  3  2  0     0  0
  2  4  1  0     0  0
  3  5  1  0     0  0
  4  8  1  0     0  0
  5  8  2  0     0  0
  6 22  2  0     0  0
  6 24  1  0     0  0
  6 25  1  0     0  0
  7 22  1  0     0  0
  7 23  2  0     0  0
  8  9  1  0     0  0
  9 10  1  0     0  0
  9 13  2  0     0  0
 10 11  1  0     0  0
 10 14  2  0     0  0
 11 15  2  0     0  0
 11 16  1  0     0  0
 12 17  2  0     0  0
 12 18  1  0     0  0
 12 24  1  0     0  0
 13 19  1  0     0  0
 14 20  1  0     0  0
 15 17  1  0     0  0
 16 18  2  0     0  0
 19 20  2  0     0  0
 21 25  1  0     0  0
 22 26  1  0     0  0
 23 25  1  0     0  0
 26 27  1  0     0  0
 27 28  1  0     0  0
 28 29  1  0     0  0
M  CHG  1   6   1
M  END
> <standard_type>
pIC50

> <# Confs.>
25

> <canonical_smiles>
CCCCC(N=CC1CO)=[N]1CC2=CC=C(C3=CC=CC=C3C4=NN=NN4)C=C2

> <standard_relation>
=

> <Publication_ID>
nan

> <predicted_activity_value>
7.823908740944319

> <actual_activity_value>
7.5376020021010435

> <Compound>
4

> <standard_units>
nM

> hash
11930142815789539851

$$$$
3
XXILIB    08252103513D 0   0.00000     0.00000

 29 32  0     1  0            999 V2000
    2.4802    2.4884   -1.2407 O   0  0  0  0  0  2           0  0  0
    2.2534   -0.3551    6.9478 N   0  0  0  0  0  3           0  0  0
    2.1811    0.3040    5.7995 N   0  0  0  0  0  3           0  0  0
    0.9812   -0.5299    7.3287 N   0  0  0  0  0  3           0  0  0
    0.8730    0.5474    5.4497 N   0  0  0  0  0  3           0  0  0
    1.4768   -0.0000   -0.0000 N   0  3  0  0  0  4           0  0  0
    3.6330   -0.6003   -0.2547 N   0  0  0  0  0  3           0  0  0
    0.1337    0.0254    6.4085 C   0  0  0  0  0  4           0  0  0
   -1.3047    0.0092    6.5162 C   0  0  0  0  0  4           0  0  0
   -2.1389   -0.0014    5.3750 C   0  0  0  0  0  4           0  0  0
   -1.6098   -0.0004    4.0168 C   0  0  0  0  0  4           0  0  0
   -0.5728   -0.0000    1.3850 C   0  0  0  0  0  4           0  0  0
   -1.8748    0.0149    7.7999 C   0  0  0  0  0  4           0  0  0
   -3.5340   -0.0114    5.5648 C   0  0  0  0  0  4           0  0  0
   -1.3598    1.2049    3.3440 C   0  0  0  0  0  4           0  0  0
   -1.3330   -1.2052    3.3539 C   0  0  0  0  0  4           0  0  0
   -0.8455    1.2049    2.0443 C   0  0  0  0  0  4           0  0  0
   -0.8188   -1.2052    2.0543 C   0  0  0  0  0  4           0  0  0
   -3.2591    0.0053    7.9619 C   0  0  0  0  0  4           0  0  0
   -4.0882   -0.0083    6.8457 C   0  0  0  0  0  4           0  0  0
    2.0784    2.4282    0.1243 C   0  0  0  0  0  4           0  0  0
    2.3036   -0.8545   -0.4934 C   0  0  0  0  0  4           0  0  0
    3.6405    0.4811    0.4535 C   0  0  0  0  0  4           0  0  0
    0.0000    0.0000    0.0000 C   0  0  0  0  0  4           0  0  0
    2.2664    1.0423    0.7177 C   0  0  1  0  0  4           0  0  0
    1.8824   -2.0359   -1.2978 C   0  0  0  0  0  4           0  0  0
    1.6370   -3.2411   -0.3970 C   0  0  0  0  0  4           0  0  0
    1.2024   -4.4810   -1.1725 C   0  0  0  0  0  4           0  0  0
    0.9573   -5.6841   -0.2740 C   0  0  0  0  0  4           0  0  0
  1 21  1  0     0  0
  2  3  2  0     0  0
  2  4  1  0     0  0
  3  5  1  0     0  0
  4  8  1  0     0  0
  5  8  2  0     0  0
  6 22  2  0     0  0
  6 24  1  0     0  0
  6 25  1  0     0  0
  7 22  1  0     0  0
  7 23  2  0     0  0
  8  9  1  0     0  0
  9 10  1  0     0  0
  9 13  2  0     0  0
 10 11  1  0     0  0
 10 14  2  0     0  0
 11 15  2  0     0  0
 11 16  1  0     0  0
 12 17  2  0     0  0
 12 18  1  0     0  0
 12 24  1  0     0  0
 13 19  1  0     0  0
 14 20  1  0     0  0
 15 17  1  0     0  0
 16 18  2  0     0  0
 19 20  2  0     0  0
 21 25  1  0     0  0
 22 26  1  0     0  0
 23 25  1  0     0  0
 26 27  1  0     0  0
 27 28  1  0     0  0
 28 29  1  0     0  0
M  CHG  1   6   1
M  END
> <standard_type>
pIC50

> <# Confs.>
25

> <canonical_smiles>
CCCCC(N=CC1CO)=[N]1CC2=CC=C(C3=CC=CC=C3C4=NN=NN4)C=C2

> <standard_relation>
=

> <Publication_ID>
nan

> <predicted_activity_value>
7.823908740944319

> <actual_activity_value>
7.5376020021010435

> <Compound>
4

> <standard_units>
nM

> hash
11930142815789539851

$$$$
3
XXILIB    08252103513D 0   0.00000     0.00000

 29 32  0     1  0            999 V2000
    1.0342   -3.1275    0.7626 O   0  0  0  0  0  2           0  0  0
    0.5683   -3.4931    6.4606 N   0  0  0  0  0  3           0  0  0
    1.0990   -2.7011    5.5389 N   0  0  0  0  0  3           0  0  0
   -0.5442   -2.8635    6.8608 N   0  0  0  0  0  3           0  0  0
    0.3308   -1.5752    5.3517 N   0  0  0  0  0  3           0  0  0
    1.4767   -0.0000    0.0000 N   0  3  0  0  0  4           0  0  0
    3.6261    0.6348   -0.2220 N   0  0  0  0  0  3           0  0  0
   -0.6892   -1.6852    6.1799 C   0  0  0  0  0  4           0  0  0
   -1.7852   -0.7669    6.3709 C   0  0  0  0  0  4           0  0  0
   -2.2609    0.0561    5.3246 C   0  0  0  0  0  4           0  0  0
   -1.6848    0.0340    3.9858 C   0  0  0  0  0  4           0  0  0
   -0.5728    0.0000    1.3850 C   0  0  0  0  0  4           0  0  0
   -2.3775   -0.6948    7.6424 C   0  0  0  0  0  4           0  0  0
   -3.3317    0.9300    5.5933 C   0  0  0  0  0  4           0  0  0
   -2.1811   -0.8368    3.0043 C   0  0  0  0  0  4           0  0  0
   -0.6246    0.8877    3.6469 C   0  0  0  0  0  4           0  0  0
   -1.6329   -0.8520    1.7186 C   0  0  0  0  0  4           0  0  0
   -0.0763    0.8724    2.3614 C   0  0  0  0  0  4           0  0  0
   -3.4362    0.1790    7.8840 C   0  0  0  0  0  4           0  0  0
   -3.9133    0.9904    6.8605 C   0  0  0  0  0  4           0  0  0
    2.1164   -2.4162    0.1700 C   0  0  0  0  0  4           0  0  0
    2.2979    0.8580   -0.4953 C   0  0  0  0  0  4           0  0  0
    3.6384   -0.4363    0.5016 C   0  0  0  0  0  4           0  0  0
    0.0000    0.0000    0.0000 C   0  0  0  0  0  4           0  0  0
    2.2695   -1.0188    0.7464 C   0  0  1  0  0  4           0  0  0
    1.8632    2.0530   -1.2713 C   0  0  0  0  0  4           0  0  0
    1.6403    3.2441   -0.3461 C   0  0  0  0  0  4           0  0  0
    1.1928    4.4974   -1.0920 C   0  0  0  0  0  4           0  0  0
    0.9703    5.6864   -0.1692 C   0  0  0  0  0  4           0  0  0
  1 21  1  0     0  0
  2  3  2  0     0  0
  2  4  1  0     0  0
  3  5  1  0     0  0
  4  8  1  0     0  0
  5  8  2  0     0  0
  6 22  2  0     0  0
  6 24  1  0     0  0
  6 25  1  0     0  0
  7 22  1  0     0  0
  7 23  2  0     0  0
  8  9  1  0     0  0
  9 10  1  0     0  0
  9 13  2  0     0  0
 10 11  1  0     0  0
 10 14  2  0     0  0
 11 15  2  0     0  0
 11 16  1  0     0  0
 12 17  2  0     0  0
 12 18  1  0     0  0
 12 24  1  0     0  0
 13 19  1  0     0  0
 14 20  1  0     0  0
 15 17  1  0     0  0
 16 18  2  0     0  0
 19 20  2  0     0  0
 21 25  1  0     0  0
 22 26  1  0     0  0
 23 25  1  0     0  0
 26 27  1  0     0  0
 27 28  1  0     0  0
 28 29  1  0     0  0
M  CHG  1   6   1
M  END
> <standard_type>
pIC50

> <# Confs.>
25

> <canonical_smiles>
CCCCC(N=CC1CO)=[N]1CC2=CC=C(C3=CC=CC=C3C4=NN=NN4)C=C2

> <standard_relation>
=

> <Publication_ID>
nan

> <predicted_activity_value>
7.823908740944319

> <actual_activity_value>
7.5376020021010435

> <Compound>
4

> <standard_units>
nM

> hash
11930142815789539851

$$$$
3
XXILIB    08252103513D 0   0.00000     0.00000

 29 32  0     1  0            999 V2000
    2.4802    2.4884   -1.2407 O   0  0  0  0  0  2           0  0  0
    0.4968    3.5581    6.4353 N   0  0  0  0  0  3           0  0  0
    1.0444    2.7696    5.5206 N   0  0  0  0  0  3           0  0  0
   -0.6046    2.9107    6.8376 N   0  0  0  0  0  3           0  0  0
    0.2988    1.6274    5.3410 N   0  0  0  0  0  3           0  0  0
    1.4768   -0.0000   -0.0000 N   0  3  0  0  0  4           0  0  0
    3.6330   -0.6003   -0.2547 N   0  0  0  0  0  3           0  0  0
   -0.7262    1.7252    6.1646 C   0  0  0  0  0  4           0  0  0
   -1.8023    0.7854    6.3638 C   0  0  0  0  0  4           0  0  0
   -2.2627   -0.0541    5.3238 C   0  0  0  0  0  4           0  0  0
   -1.6853   -0.0335    3.9856 C   0  0  0  0  0  4           0  0  0
   -0.5728   -0.0000    1.3850 C   0  0  0  0  0  4           0  0  0
   -2.4046    0.7241    7.6312 C   0  0  0  0  0  4           0  0  0
   -3.3216   -0.9408    5.5975 C   0  0  0  0  0  4           0  0  0
   -0.6065   -0.8672    3.6556 C   0  0  0  0  0  4           0  0  0
   -2.1996    0.8168    2.9954 C   0  0  0  0  0  4           0  0  0
   -0.0582   -0.8520    2.3699 C   0  0  0  0  0  4           0  0  0
   -1.6514    0.8320    1.7099 C   0  0  0  0  0  4           0  0  0
   -3.4520   -0.1619    7.8774 C   0  0  0  0  0  4           0  0  0
   -3.9100   -0.9940    6.8618 C   0  0  0  0  0  4           0  0  0
    2.0784    2.4282    0.1243 C   0  0  0  0  0  4           0  0  0
    2.3036   -0.8545   -0.4934 C   0  0  0  0  0  4           0  0  0
    3.6405    0.4811    0.4535 C   0  0  0  0  0  4           0  0  0
    0.0000    0.0000    0.0000 C   0  0  0  0  0  4           0  0  0
    2.2664    1.0423    0.7177 C   0  0  1  0  0  4           0  0  0
    1.8824   -2.0359   -1.2978 C   0  0  0  0  0  4           0  0  0
    1.6370   -3.2411   -0.3970 C   0  0  0  0  0  4           0  0  0
    1.2024   -4.4810   -1.1725 C   0  0  0  0  0  4           0  0  0
    0.9573   -5.6841   -0.2740 C   0  0  0  0  0  4           0  0  0
  1 21  1  0     0  0
  2  3  2  0     0  0
  2  4  1  0     0  0
  3  5  1  0     0  0
  4  8  1  0     0  0
  5  8  2  0     0  0
  6 22  2  0     0  0
  6 24  1  0     0  0
  6 25  1  0     0  0
  7 22  1  0     0  0
  7 23  2  0     0  0
  8  9  1  0     0  0
  9 10  1  0     0  0
  9 13  2  0     0  0
 10 11  1  0     0  0
 10 14  2  0     0  0
 11 15  2  0     0  0
 11 16  1  0     0  0
 12 17  2  0     0  0
 12 18  1  0     0  0
 12 24  1  0     0  0
 13 19  1  0     0  0
 14 20  1  0     0  0
 15 17  1  0     0  0
 16 18  2  0     0  0
 19 20  2  0     0  0
 21 25  1  0     0  0
 22 26  1  0     0  0
 23 25  1  0     0  0
 26 27  1  0     0  0
 27 28  1  0     0  0
 28 29  1  0     0  0
M  CHG  1   6   1
M  END
> <standard_type>
pIC50

> <# Confs.>
25

> <canonical_smiles>
CCCCC(N=CC1CO)=[N]1CC2=CC=C(C3=CC=CC=C3C4=NN=NN4)C=C2

> <standard_relation>
=

> <Publication_ID>
nan

> <predicted_activity_value>
7.823908740944319

> <actual_activity_value>
7.5376020021010435

> <Compound>
4

> <standard_units>
nM

> hash
11930142815789539851

$$$$
3
XXILIB    08252103513D 0   0.00000     0.00000

 29 32  0     1  0            999 V2000
    1.0342   -3.1275    0.7626 O   0  0  0  0  0  2           0  0  0
    0.5683   -3.4931    6.4606 N   0  0  0  0  0  3           0  0  0
    1.0990   -2.7011    5.5389 N   0  0  0  0  0  3           0  0  0
   -0.5442   -2.8635    6.8608 N   0  0  0  0  0  3           0  0  0
    0.3308   -1.5752    5.3517 N   0  0  0  0  0  3           0  0  0
    1.4767   -0.0000    0.0000 N   0  3  0  0  0  4           0  0  0
    3.6261    0.6348   -0.2220 N   0  0  0  0  0  3           0  0  0
   -0.6892   -1.6852    6.1799 C   0  0  0  0  0  4           0  0  0
   -1.7852   -0.7669    6.3709 C   0  0  0  0  0  4           0  0  0
   -2.2609    0.0561    5.3246 C   0  0  0  0  0  4           0  0  0
   -1.6848    0.0340    3.9858 C   0  0  0  0  0  4           0  0  0
   -0.5728    0.0000    1.3850 C   0  0  0  0  0  4           0  0  0
   -2.3775   -0.6948    7.6424 C   0  0  0  0  0  4           0  0  0
   -3.3317    0.9300    5.5933 C   0  0  0  0  0  4           0  0  0
   -2.1811   -0.8368    3.0043 C   0  0  0  0  0  4           0  0  0
   -0.6246    0.8877    3.6469 C   0  0  0  0  0  4           0  0  0
   -1.6329   -0.8520    1.7186 C   0  0  0  0  0  4           0  0  0
   -0.0763    0.8724    2.3614 C   0  0  0  0  0  4           0  0  0
   -3.4362    0.1790    7.8840 C   0  0  0  0  0  4           0  0  0
   -3.9133    0.9904    6.8605 C   0  0  0  0  0  4           0  0  0
    2.1164   -2.4162    0.1700 C   0  0  0  0  0  4           0  0  0
    2.2979    0.8580   -0.4953 C   0  0  0  0  0  4           0  0  0
    3.6384   -0.4363    0.5016 C   0  0  0  0  0  4           0  0  0
    0.0000    0.0000    0.0000 C   0  0  0  0  0  4           0  0  0
    2.2695   -1.0188    0.7464 C   0  0  1  0  0  4           0  0  0
    1.8632    2.0530   -1.2713 C   0  0  0  0  0  4           0  0  0
    1.7716    1.7262   -2.7575 C   0  0  0  0  0  4           0  0  0
    3.1028    1.2691   -3.3462 C   0  0  0  0  0  4           0  0  0
    3.0121    0.9427   -4.8294 C   0  0  0  0  0  4           0  0  0
  1 21  1  0     0  0
  2  3  2  0     0  0
  2  4  1  0     0  0
  3  5  1  0     0  0
  4  8  1  0     0  0
  5  8  2  0     0  0
  6 22  2  0     0  0
  6 24  1  0     0  0
  6 25  1  0     0  0
  7 22  1  0     0  0
  7 23  2  0     0  0
  8  9  1  0     0  0
  9 10  1  0     0  0
  9 13  2  0     0  0
 10 11  1  0     0  0
 10 14  2  0     0  0
 11 15  2  0     0  0
 11 16  1  0     0  0
 12 17  2  0     0  0
 12 18  1  0     0  0
 12 24  1  0     0  0
 13 19  1  0     0  0
 14 20  1  0     0  0
 15 17  1  0     0  0
 16 18  2  0     0  0
 19 20  2  0     0  0
 21 25  1  0     0  0
 22 26  1  0     0  0
 23 25  1  0     0  0
 26 27  1  0     0  0
 27 28  1  0     0  0
 28 29  1  0     0  0
M  CHG  1   6   1
M  END
> <standard_type>
pIC50

> <# Confs.>
25

> <canonical_smiles>
CCCCC(N=CC1CO)=[N]1CC2=CC=C(C3=CC=CC=C3C4=NN=NN4)C=C2

> <standard_relation>
=

> <Publication_ID>
nan

> <predicted_activity_value>
7.823908740944319

> <actual_activity_value>
7.5376020021010435

> <Compound>
4

> <standard_units>
nM

> hash
11930142815789539851

$$$$
3
XXILIB    08252103513D 0   0.00000     0.00000

 29 32  0     1  0            999 V2000
    2.4802    2.4884   -1.2407 O   0  0  0  0  0  2           0  0  0
    2.2534   -0.3551    6.9478 N   0  0  0  0  0  3           0  0  0
    2.1811    0.3040    5.7995 N   0  0  0  0  0  3           0  0  0
    0.9812   -0.5299    7.3287 N   0  0  0  0  0  3           0  0  0
    0.8730    0.5474    5.4497 N   0  0  0  0  0  3           0  0  0
    1.4768   -0.0000   -0.0000 N   0  3  0  0  0  4           0  0  0
    3.6330   -0.6003   -0.2547 N   0  0  0  0  0  3           0  0  0
    0.1337    0.0254    6.4085 C   0  0  0  0  0  4           0  0  0
   -1.3047    0.0092    6.5162 C   0  0  0  0  0  4           0  0  0
   -2.1389   -0.0014    5.3750 C   0  0  0  0  0  4           0  0  0
   -1.6098   -0.0004    4.0168 C   0  0  0  0  0  4           0  0  0
   -0.5728   -0.0000    1.3850 C   0  0  0  0  0  4           0  0  0
   -1.8748    0.0149    7.7999 C   0  0  0  0  0  4           0  0  0
   -3.5340   -0.0114    5.5648 C   0  0  0  0  0  4           0  0  0
   -1.3598    1.2049    3.3440 C   0  0  0  0  0  4           0  0  0
   -1.3330   -1.2052    3.3539 C   0  0  0  0  0  4           0  0  0
   -0.8455    1.2049    2.0443 C   0  0  0  0  0  4           0  0  0
   -0.8188   -1.2052    2.0543 C   0  0  0  0  0  4           0  0  0
   -3.2591    0.0053    7.9619 C   0  0  0  0  0  4           0  0  0
   -4.0882   -0.0083    6.8457 C   0  0  0  0  0  4           0  0  0
    2.0784    2.4282    0.1243 C   0  0  0  0  0  4           0  0  0
    2.3036   -0.8545   -0.4934 C   0  0  0  0  0  4           0  0  0
    3.6405    0.4811    0.4535 C   0  0  0  0  0  4           0  0  0
    0.0000    0.0000    0.0000 C   0  0  0  0  0  4           0  0  0
    2.2664    1.0423    0.7177 C   0  0  1  0  0  4           0  0  0
    1.8824   -2.0359   -1.2978 C   0  0  0  0  0  4           0  0  0
    1.6370   -3.2411   -0.3970 C   0  0  0  0  0  4           0  0  0
    2.8767   -3.6536    0.3907 C   0  0  0  0  0  4           0  0  0
    2.6323   -4.8564    1.2898 C   0  0  0  0  0  4           0  0  0
  1 21  1  0     0  0
  2  3  2  0     0  0
  2  4  1  0     0  0
  3  5  1  0     0  0
  4  8  1  0     0  0
  5  8  2  0     0  0
  6 22  2  0     0  0
  6 24  1  0     0  0
  6 25  1  0     0  0
  7 22  1  0     0  0
  7 23  2  0     0  0
  8  9  1  0     0  0
  9 10  1  0     0  0
  9 13  2  0     0  0
 10 11  1  0     0  0
 10 14  2  0     0  0
 11 15  2  0     0  0
 11 16  1  0     0  0
 12 17  2  0     0  0
 12 18  1  0     0  0
 12 24  1  0     0  0
 13 19  1  0     0  0
 14 20  1  0     0  0
 15 17  1  0     0  0
 16 18  2  0     0  0
 19 20  2  0     0  0
 21 25  1  0     0  0
 22 26  1  0     0  0
 23 25  1  0     0  0
 26 27  1  0     0  0
 27 28  1  0     0  0
 28 29  1  0     0  0
M  CHG  1   6   1
M  END
> <standard_type>
pIC50

> <# Confs.>
25

> <canonical_smiles>
CCCCC(N=CC1CO)=[N]1CC2=CC=C(C3=CC=CC=C3C4=NN=NN4)C=C2

> <standard_relation>
=

> <Publication_ID>
nan

> <predicted_activity_value>
7.823908740944319

> <actual_activity_value>
7.5376020021010435

> <Compound>
4

> <standard_units>
nM

> hash
11930142815789539851

$$$$
3
XXILIB    08252103513D 0   0.00000     0.00000

 29 32  0     1  0            999 V2000
    1.8066    2.3833   -1.2730 O   0  0  0  0  0  2           0  0  0
    1.4526    2.7172    6.6433 N   0  0  0  0  0  3           0  0  0
    1.7650    1.9056    5.6422 N   0  0  0  0  0  3           0  0  0
    0.2369    2.3227    7.0439 N   0  0  0  0  0  3           0  0  0
    0.7569    0.9996    5.4063 N   0  0  0  0  0  3           0  0  0
    1.4768   -0.0000   -0.0000 N   0  3  0  0  0  4           0  0  0
    3.6330   -0.6003   -0.2547 N   0  0  0  0  0  3           0  0  0
   -0.1903    1.2682    6.2832 C   0  0  0  0  0  4           0  0  0
   -1.4588    0.6035    6.4566 C   0  0  0  0  0  4           0  0  0
   -2.1389   -0.0014    5.3750 C   0  0  0  0  0  4           0  0  0
   -1.6098   -0.0004    4.0168 C   0  0  0  0  0  4           0  0  0
   -0.5728   -0.0000    1.3850 C   0  0  0  0  0  4           0  0  0
   -2.0238    0.5756    7.7422 C   0  0  0  0  0  4           0  0  0
   -3.3757   -0.6257    5.6260 C   0  0  0  0  0  4           0  0  0
   -1.3598    1.2049    3.3440 C   0  0  0  0  0  4           0  0  0
   -1.3330   -1.2052    3.3539 C   0  0  0  0  0  4           0  0  0
   -0.8455    1.2049    2.0443 C   0  0  0  0  0  4           0  0  0
   -0.8188   -1.2052    2.0543 C   0  0  0  0  0  4           0  0  0
   -3.2501   -0.0482    7.9654 C   0  0  0  0  0  4           0  0  0
   -3.9254   -0.6488    6.9086 C   0  0  0  0  0  4           0  0  0
    2.0784    2.4282    0.1243 C   0  0  0  0  0  4           0  0  0
    2.3036   -0.8545   -0.4934 C   0  0  0  0  0  4           0  0  0
    3.6405    0.4811    0.4535 C   0  0  0  0  0  4           0  0  0
    0.0000    0.0000    0.0000 C   0  0  0  0  0  4           0  0  0
    2.2664    1.0423    0.7177 C   0  0  1  0  0  4           0  0  0
    1.8824   -2.0359   -1.2978 C   0  0  0  0  0  4           0  0  0
    1.8234   -1.6849   -2.7802 C   0  0  0  0  0  4           0  0  0
    1.3963   -2.8625   -3.6508 C   0  0  0  0  0  4           0  0  0
    1.3372   -2.5127   -5.1303 C   0  0  0  0  0  4           0  0  0
  1 21  1  0     0  0
  2  3  2  0     0  0
  2  4  1  0     0  0
  3  5  1  0     0  0
  4  8  1  0     0  0
  5  8  2  0     0  0
  6 22  2  0     0  0
  6 24  1  0     0  0
  6 25  1  0     0  0
  7 22  1  0     0  0
  7 23  2  0     0  0
  8  9  1  0     0  0
  9 10  1  0     0  0
  9 13  2  0     0  0
 10 11  1  0     0  0
 10 14  2  0     0  0
 11 15  2  0     0  0
 11 16  1  0     0  0
 12 17  2  0     0  0
 12 18  1  0     0  0
 12 24  1  0     0  0
 13 19  1  0     0  0
 14 20  1  0     0  0
 15 17  1  0     0  0
 16 18  2  0     0  0
 19 20  2  0     0  0
 21 25  1  0     0  0
 22 26  1  0     0  0
 23 25  1  0     0  0
 26 27  1  0     0  0
 27 28  1  0     0  0
 28 29  1  0     0  0
M  CHG  1   6   1
M  END
> <standard_type>
pIC50

> <# Confs.>
25

> <canonical_smiles>
CCCCC(N=CC1CO)=[N]1CC2=CC=C(C3=CC=CC=C3C4=NN=NN4)C=C2

> <standard_relation>
=

> <Publication_ID>
nan

> <predicted_activity_value>
7.823908740944319

> <actual_activity_value>
7.5376020021010435

> <Compound>
4

> <standard_units>
nM

> hash
11930142815789539851

$$$$
3
XXILIB    08252103513D 0   0.00000     0.00000

 29 32  0     1  0            999 V2000
    2.4802    2.4884   -1.2407 O   0  0  0  0  0  2           0  0  0
    2.2534   -0.3551    6.9478 N   0  0  0  0  0  3           0  0  0
    2.1811    0.3040    5.7995 N   0  0  0  0  0  3           0  0  0
    0.9812   -0.5299    7.3287 N   0  0  0  0  0  3           0  0  0
    0.8730    0.5474    5.4497 N   0  0  0  0  0  3           0  0  0
    1.4768   -0.0000   -0.0000 N   0  3  0  0  0  4           0  0  0
    3.6330   -0.6003   -0.2547 N   0  0  0  0  0  3           0  0  0
    0.1337    0.0254    6.4085 C   0  0  0  0  0  4           0  0  0
   -1.3047    0.0092    6.5162 C   0  0  0  0  0  4           0  0  0
   -2.1389   -0.0014    5.3750 C   0  0  0  0  0  4           0  0  0
   -1.6098   -0.0004    4.0168 C   0  0  0  0  0  4           0  0  0
   -0.5728   -0.0000    1.3850 C   0  0  0  0  0  4           0  0  0
   -1.8748    0.0149    7.7999 C   0  0  0  0  0  4           0  0  0
   -3.5340   -0.0114    5.5648 C   0  0  0  0  0  4           0  0  0
   -1.3598    1.2049    3.3440 C   0  0  0  0  0  4           0  0  0
   -1.3330   -1.2052    3.3539 C   0  0  0  0  0  4           0  0  0
   -0.8455    1.2049    2.0443 C   0  0  0  0  0  4           0  0  0
   -0.8188   -1.2052    2.0543 C   0  0  0  0  0  4           0  0  0
   -3.2591    0.0053    7.9619 C   0  0  0  0  0  4           0  0  0
   -4.0882   -0.0083    6.8457 C   0  0  0  0  0  4           0  0  0
    2.0784    2.4282    0.1243 C   0  0  0  0  0  4           0  0  0
    2.3036   -0.8545   -0.4934 C   0  0  0  0  0  4           0  0  0
    3.6405    0.4811    0.4535 C   0  0  0  0  0  4           0  0  0
    0.0000    0.0000    0.0000 C   0  0  0  0  0  4           0  0  0
    2.2664    1.0423    0.7177 C   0  0  1  0  0  4           0  0  0
    1.8824   -2.0359   -1.2978 C   0  0  0  0  0  4           0  0  0
    1.8234   -1.6849   -2.7802 C   0  0  0  0  0  4           0  0  0
    3.1680   -1.2220   -3.3329 C   0  0  0  0  0  4           0  0  0
    3.1096   -0.8715   -4.8122 C   0  0  0  0  0  4           0  0  0
  1 21  1  0     0  0
  2  3  2  0     0  0
  2  4  1  0     0  0
  3  5  1  0     0  0
  4  8  1  0     0  0
  5  8  2  0     0  0
  6 22  2  0     0  0
  6 24  1  0     0  0
  6 25  1  0     0  0
  7 22  1  0     0  0
  7 23  2  0     0  0
  8  9  1  0     0  0
  9 10  1  0     0  0
  9 13  2  0     0  0
 10 11  1  0     0  0
 10 14  2  0     0  0
 11 15  2  0     0  0
 11 16  1  0     0  0
 12 17  2  0     0  0
 12 18  1  0     0  0
 12 24  1  0     0  0
 13 19  1  0     0  0
 14 20  1  0     0  0
 15 17  1  0     0  0
 16 18  2  0     0  0
 19 20  2  0     0  0
 21 25  1  0     0  0
 22 26  1  0     0  0
 23 25  1  0     0  0
 26 27  1  0     0  0
 27 28  1  0     0  0
 28 29  1  0     0  0
M  CHG  1   6   1
M  END
> <standard_type>
pIC50

> <# Confs.>
25

> <canonical_smiles>
CCCCC(N=CC1CO)=[N]1CC2=CC=C(C3=CC=CC=C3C4=NN=NN4)C=C2

> <standard_relation>
=

> <Publication_ID>
nan

> <predicted_activity_value>
7.823908740944319

> <actual_activity_value>
7.5376020021010435

> <Compound>
4

> <standard_units>
nM

> hash
11930142815789539851

$$$$
3
XXILIB    08252103513D 0   0.00000     0.00000

 29 32  0     1  0            999 V2000
    1.0342   -3.0898   -0.9033 O   0  0  0  0  0  2           0  0  0
    2.2445    0.4495    6.9500 N   0  0  0  0  0  3           0  0  0
    2.1874   -0.2171    5.8052 N   0  0  0  0  0  3           0  0  0
    0.9684    0.6015    7.3275 N   0  0  0  0  0  3           0  0  0
    0.8850   -0.4893    5.4551 N   0  0  0  0  0  3           0  0  0
    1.4767    0.0000   -0.0000 N   0  3  0  0  0  4           0  0  0
    3.6261    0.6608    0.1252 N   0  0  0  0  0  3           0  0  0
    0.1337    0.0254    6.4085 C   0  0  0  0  0  4           0  0  0
   -1.3047    0.0092    6.5162 C   0  0  0  0  0  4           0  0  0
   -2.1389   -0.0014    5.3750 C   0  0  0  0  0  4           0  0  0
   -1.6098   -0.0004    4.0168 C   0  0  0  0  0  4           0  0  0
   -0.5728   -0.0000    1.3850 C   0  0  0  0  0  4           0  0  0
   -1.8748    0.0149    7.7999 C   0  0  0  0  0  4           0  0  0
   -3.5340   -0.0114    5.5648 C   0  0  0  0  0  4           0  0  0
   -1.3598    1.2049    3.3440 C   0  0  0  0  0  4           0  0  0
   -1.3330   -1.2052    3.3539 C   0  0  0  0  0  4           0  0  0
   -0.8455    1.2049    2.0443 C   0  0  0  0  0  4           0  0  0
   -0.8188   -1.2052    2.0543 C   0  0  0  0  0  4           0  0  0
   -3.2591    0.0053    7.9619 C   0  0  0  0  0  4           0  0  0
   -4.0882   -0.0083    6.8457 C   0  0  0  0  0  4           0  0  0
    2.1164   -2.1775   -1.0609 C   0  0  0  0  0  4           0  0  0
    2.2979    0.9907    0.0000 C   0  0  0  0  0  4           0  0  0
    3.6384   -0.6287    0.2163 C   0  0  0  0  0  4           0  0  0
    0.0000    0.0000    0.0000 C   0  0  0  0  0  4           0  0  0
    2.2695   -1.2555    0.1370 C   0  0  1  0  0  4           0  0  0
    1.8632    2.4136   -0.0744 C   0  0  0  0  0  4           0  0  0
    2.4441    3.0903   -1.3109 C   0  0  0  0  0  4           0  0  0
    2.0107    2.4203   -2.6111 C   0  0  0  0  0  4           0  0  0
    2.5902    3.0952   -3.8454 C   0  0  0  0  0  4           0  0  0
  1 21  1  0     0  0
  2  3  2  0     0  0
  2  4  1  0     0  0
  3  5  1  0     0  0
  4  8  1  0     0  0
  5  8  2  0     0  0
  6 22  2  0     0  0
  6 24  1  0     0  0
  6 25  1  0     0  0
  7 22  1  0     0  0
  7 23  2  0     0  0
  8  9  1  0     0  0
  9 10  1  0     0  0
  9 13  2  0     0  0
 10 11  1  0     0  0
 10 14  2  0     0  0
 11 15  2  0     0  0
 11 16  1  0     0  0
 12 17  2  0     0  0
 12 18  1  0     0  0
 12 24  1  0     0  0
 13 19  1  0     0  0
 14 20  1  0     0  0
 15 17  1  0     0  0
 16 18  2  0     0  0
 19 20  2  0     0  0
 21 25  1  0     0  0
 22 26  1  0     0  0
 23 25  1  0     0  0
 26 27  1  0     0  0
 27 28  1  0     0  0
 28 29  1  0     0  0
M  CHG  1   6   1
M  END
> <standard_type>
pIC50

> <# Confs.>
25

> <canonical_smiles>
CCCCC(N=CC1CO)=[N]1CC2=CC=C(C3=CC=CC=C3C4=NN=NN4)C=C2

> <standard_relation>
=

> <Publication_ID>
nan

> <predicted_activity_value>
7.823908740944319

> <actual_activity_value>
7.5376020021010435

> <Compound>
4

> <standard_units>
nM

> hash
11930142815789539851

$$$$
3
XXILIB    08252103513D 0   0.00000     0.00000

 29 32  0     1  0            999 V2000
    1.0342   -3.0898   -0.9033 O   0  0  0  0  0  2           0  0  0
    2.2445    0.4495    6.9500 N   0  0  0  0  0  3           0  0  0
    2.1874   -0.2171    5.8052 N   0  0  0  0  0  3           0  0  0
    0.9684    0.6015    7.3275 N   0  0  0  0  0  3           0  0  0
    0.8850   -0.4893    5.4551 N   0  0  0  0  0  3           0  0  0
    1.4767    0.0000   -0.0000 N   0  3  0  0  0  4           0  0  0
    3.6261    0.6608    0.1252 N   0  0  0  0  0  3           0  0  0
    0.1337    0.0254    6.4085 C   0  0  0  0  0  4           0  0  0
   -1.3047    0.0092    6.5162 C   0  0  0  0  0  4           0  0  0
   -2.1389   -0.0014    5.3750 C   0  0  0  0  0  4           0  0  0
   -1.6098   -0.0004    4.0168 C   0  0  0  0  0  4           0  0  0
   -0.5728   -0.0000    1.3850 C   0  0  0  0  0  4           0  0  0
   -1.8748    0.0149    7.7999 C   0  0  0  0  0  4           0  0  0
   -3.5340   -0.0114    5.5648 C   0  0  0  0  0  4           0  0  0
   -1.3598    1.2049    3.3440 C   0  0  0  0  0  4           0  0  0
   -1.3330   -1.2052    3.3539 C   0  0  0  0  0  4           0  0  0
   -0.8455    1.2049    2.0443 C   0  0  0  0  0  4           0  0  0
   -0.8188   -1.2052    2.0543 C   0  0  0  0  0  4           0  0  0
   -3.2591    0.0053    7.9619 C   0  0  0  0  0  4           0  0  0
   -4.0882   -0.0083    6.8457 C   0  0  0  0  0  4           0  0  0
    2.1164   -2.1775   -1.0609 C   0  0  0  0  0  4           0  0  0
    2.2979    0.9907    0.0000 C   0  0  0  0  0  4           0  0  0
    3.6384   -0.6287    0.2163 C   0  0  0  0  0  4           0  0  0
    0.0000    0.0000    0.0000 C   0  0  0  0  0  4           0  0  0
    2.2695   -1.2555    0.1370 C   0  0  1  0  0  4           0  0  0
    1.8632    2.4136   -0.0744 C   0  0  0  0  0  4           0  0  0
    2.4441    3.0903   -1.3109 C   0  0  0  0  0  4           0  0  0
    2.0287    4.5530   -1.4354 C   0  0  0  0  0  4           0  0  0
    2.6082    5.2288   -2.6691 C   0  0  0  0  0  4           0  0  0
  1 21  1  0     0  0
  2  3  2  0     0  0
  2  4  1  0     0  0
  3  5  1  0     0  0
  4  8  1  0     0  0
  5  8  2  0     0  0
  6 22  2  0     0  0
  6 24  1  0     0  0
  6 25  1  0     0  0
  7 22  1  0     0  0
  7 23  2  0     0  0
  8  9  1  0     0  0
  9 10  1  0     0  0
  9 13  2  0     0  0
 10 11  1  0     0  0
 10 14  2  0     0  0
 11 15  2  0     0  0
 11 16  1  0     0  0
 12 17  2  0     0  0
 12 18  1  0     0  0
 12 24  1  0     0  0
 13 19  1  0     0  0
 14 20  1  0     0  0
 15 17  1  0     0  0
 16 18  2  0     0  0
 19 20  2  0     0  0
 21 25  1  0     0  0
 22 26  1  0     0  0
 23 25  1  0     0  0
 26 27  1  0     0  0
 27 28  1  0     0  0
 28 29  1  0     0  0
M  CHG  1   6   1
M  END
> <standard_type>
pIC50

> <# Confs.>
25

> <canonical_smiles>
CCCCC(N=CC1CO)=[N]1CC2=CC=C(C3=CC=CC=C3C4=NN=NN4)C=C2

> <standard_relation>
=

> <Publication_ID>
nan

> <predicted_activity_value>
7.823908740944319

> <actual_activity_value>
7.5376020021010435

> <Compound>
4

> <standard_units>
nM

> hash
11930142815789539851

$$$$
3
XXILIB    08252103513D 0   0.00000     0.00000

 29 32  0     1  0            999 V2000
    1.0342   -3.0898   -0.9033 O   0  0  0  0  0  2           0  0  0
    2.2445    0.4495    6.9500 N   0  0  0  0  0  3           0  0  0
    2.1874   -0.2171    5.8052 N   0  0  0  0  0  3           0  0  0
    0.9684    0.6015    7.3275 N   0  0  0  0  0  3           0  0  0
    0.8850   -0.4893    5.4551 N   0  0  0  0  0  3           0  0  0
    1.4767    0.0000   -0.0000 N   0  3  0  0  0  4           0  0  0
    3.6261    0.6608    0.1252 N   0  0  0  0  0  3           0  0  0
    0.1337    0.0254    6.4085 C   0  0  0  0  0  4           0  0  0
   -1.3047    0.0092    6.5162 C   0  0  0  0  0  4           0  0  0
   -2.1389   -0.0014    5.3750 C   0  0  0  0  0  4           0  0  0
   -1.6098   -0.0004    4.0168 C   0  0  0  0  0  4           0  0  0
   -0.5728   -0.0000    1.3850 C   0  0  0  0  0  4           0  0  0
   -1.8748    0.0149    7.7999 C   0  0  0  0  0  4           0  0  0
   -3.5340   -0.0114    5.5648 C   0  0  0  0  0  4           0  0  0
   -1.3598    1.2049    3.3440 C   0  0  0  0  0  4           0  0  0
   -1.3330   -1.2052    3.3539 C   0  0  0  0  0  4           0  0  0
   -0.8455    1.2049    2.0443 C   0  0  0  0  0  4           0  0  0
   -0.8188   -1.2052    2.0543 C   0  0  0  0  0  4           0  0  0
   -3.2591    0.0053    7.9619 C   0  0  0  0  0  4           0  0  0
   -4.0882   -0.0083    6.8457 C   0  0  0  0  0  4           0  0  0
    2.1164   -2.1775   -1.0609 C   0  0  0  0  0  4           0  0  0
    2.2979    0.9907   -0.0000 C   0  0  0  0  0  4           0  0  0
    3.6384   -0.6287    0.2163 C   0  0  0  0  0  4           0  0  0
    0.0000    0.0000    0.0000 C   0  0  0  0  0  4           0  0  0
    2.2695   -1.2555    0.1370 C   0  0  1  0  0  4           0  0  0
    1.8632    2.4136   -0.0744 C   0  0  0  0  0  4           0  0  0
    2.3304    3.1846    1.1550 C   0  0  0  0  0  4           0  0  0
    1.9104    4.6510    1.1290 C   0  0  0  0  0  4           0  0  0
    2.3765    5.4209    2.3557 C   0  0  0  0  0  4           0  0  0
  1 21  1  0     0  0
  2  3  2  0     0  0
  2  4  1  0     0  0
  3  5  1  0     0  0
  4  8  1  0     0  0
  5  8  2  0     0  0
  6 22  2  0     0  0
  6 24  1  0     0  0
  6 25  1  0     0  0
  7 22  1  0     0  0
  7 23  2  0     0  0
  8  9  1  0     0  0
  9 10  1  0     0  0
  9 13  2  0     0  0
 10 11  1  0     0  0
 10 14  2  0     0  0
 11 15  2  0     0  0
 11 16  1  0     0  0
 12 17  2  0     0  0
 12 18  1  0     0  0
 12 24  1  0     0  0
 13 19  1  0     0  0
 14 20  1  0     0  0
 15 17  1  0     0  0
 16 18  2  0     0  0
 19 20  2  0     0  0
 21 25  1  0     0  0
 22 26  1  0     0  0
 23 25  1  0     0  0
 26 27  1  0     0  0
 27 28  1  0     0  0
 28 29  1  0     0  0
M  CHG  1   6   1
M  END
> <standard_type>
pIC50

> <# Confs.>
25

> <canonical_smiles>
CCCCC(N=CC1CO)=[N]1CC2=CC=C(C3=CC=CC=C3C4=NN=NN4)C=C2

> <standard_relation>
=

> <Publication_ID>
nan

> <predicted_activity_value>
7.823908740944319

> <actual_activity_value>
7.5376020021010435

> <Compound>
4

> <standard_units>
nM

> hash
11930142815789539851

$$$$
3
XXILIB    08252103513D 0   0.00000     0.00000

 29 32  0     1  0            999 V2000
    2.4802    2.4884   -1.2407 O   0  0  0  0  0  2           0  0  0
    0.4968    3.5581    6.4353 N   0  0  0  0  0  3           0  0  0
    1.0444    2.7696    5.5206 N   0  0  0  0  0  3           0  0  0
   -0.6046    2.9107    6.8376 N   0  0  0  0  0  3           0  0  0
    0.2988    1.6274    5.3410 N   0  0  0  0  0  3           0  0  0
    1.4768   -0.0000   -0.0000 N   0  3  0  0  0  4           0  0  0
    3.6330   -0.6003   -0.2547 N   0  0  0  0  0  3           0  0  0
   -0.7262    1.7252    6.1646 C   0  0  0  0  0  4           0  0  0
   -1.8023    0.7854    6.3638 C   0  0  0  0  0  4           0  0  0
   -2.2627   -0.0541    5.3238 C   0  0  0  0  0  4           0  0  0
   -1.6853   -0.0335    3.9856 C   0  0  0  0  0  4           0  0  0
   -0.5728   -0.0000    1.3850 C   0  0  0  0  0  4           0  0  0
   -2.4046    0.7241    7.6312 C   0  0  0  0  0  4           0  0  0
   -3.3216   -0.9408    5.5975 C   0  0  0  0  0  4           0  0  0
   -0.6065   -0.8672    3.6556 C   0  0  0  0  0  4           0  0  0
   -2.1996    0.8168    2.9954 C   0  0  0  0  0  4           0  0  0
   -0.0582   -0.8520    2.3699 C   0  0  0  0  0  4           0  0  0
   -1.6514    0.8320    1.7099 C   0  0  0  0  0  4           0  0  0
   -3.4520   -0.1619    7.8774 C   0  0  0  0  0  4           0  0  0
   -3.9100   -0.9940    6.8618 C   0  0  0  0  0  4           0  0  0
    2.0784    2.4282    0.1243 C   0  0  0  0  0  4           0  0  0
    2.3036   -0.8545   -0.4934 C   0  0  0  0  0  4           0  0  0
    3.6405    0.4811    0.4535 C   0  0  0  0  0  4           0  0  0
    0.0000    0.0000    0.0000 C   0  0  0  0  0  4           0  0  0
    2.2664    1.0423    0.7177 C   0  0  1  0  0  4           0  0  0
    1.8824   -2.0359   -1.2978 C   0  0  0  0  0  4           0  0  0
    1.6370   -3.2411   -0.3970 C   0  0  0  0  0  4           0  0  0
    2.8767   -3.6536    0.3907 C   0  0  0  0  0  4           0  0  0
    2.6323   -4.8564    1.2898 C   0  0  0  0  0  4           0  0  0
  1 21  1  0     0  0
  2  3  2  0     0  0
  2  4  1  0     0  0
  3  5  1  0     0  0
  4  8  1  0     0  0
  5  8  2  0     0  0
  6 22  2  0     0  0
  6 24  1  0     0  0
  6 25  1  0     0  0
  7 22  1  0     0  0
  7 23  2  0     0  0
  8  9  1  0     0  0
  9 10  1  0     0  0
  9 13  2  0     0  0
 10 11  1  0     0  0
 10 14  2  0     0  0
 11 15  2  0     0  0
 11 16  1  0     0  0
 12 17  2  0     0  0
 12 18  1  0     0  0
 12 24  1  0     0  0
 13 19  1  0     0  0
 14 20  1  0     0  0
 15 17  1  0     0  0
 16 18  2  0     0  0
 19 20  2  0     0  0
 21 25  1  0     0  0
 22 26  1  0     0  0
 23 25  1  0     0  0
 26 27  1  0     0  0
 27 28  1  0     0  0
 28 29  1  0     0  0
M  CHG  1   6   1
M  END
> <standard_type>
pIC50

> <# Confs.>
25

> <canonical_smiles>
CCCCC(N=CC1CO)=[N]1CC2=CC=C(C3=CC=CC=C3C4=NN=NN4)C=C2

> <standard_relation>
=

> <Publication_ID>
nan

> <predicted_activity_value>
7.823908740944319

> <actual_activity_value>
7.5376020021010435

> <Compound>
4

> <standard_units>
nM

> hash
11930142815789539851

$$$$
3
XXILIB    08252103513D 0   0.00000     0.00000

 29 32  0     1  0            999 V2000
    2.4802    2.4884   -1.2407 O   0  0  0  0  0  2           0  0  0
    2.2534   -0.3551    6.9478 N   0  0  0  0  0  3           0  0  0
    2.1811    0.3040    5.7995 N   0  0  0  0  0  3           0  0  0
    0.9812   -0.5299    7.3287 N   0  0  0  0  0  3           0  0  0
    0.8730    0.5474    5.4497 N   0  0  0  0  0  3           0  0  0
    1.4768    0.0000    0.0000 N   0  3  0  0  0  4           0  0  0
    3.6330   -0.6003   -0.2547 N   0  0  0  0  0  3           0  0  0
    0.1337    0.0254    6.4085 C   0  0  0  0  0  4           0  0  0
   -1.3047    0.0092    6.5162 C   0  0  0  0  0  4           0  0  0
   -2.1389   -0.0014    5.3750 C   0  0  0  0  0  4           0  0  0
   -1.6098   -0.0004    4.0168 C   0  0  0  0  0  4           0  0  0
   -0.5728   -0.0000    1.3850 C   0  0  0  0  0  4           0  0  0
   -1.8748    0.0149    7.7999 C   0  0  0  0  0  4           0  0  0
   -3.5340   -0.0114    5.5648 C   0  0  0  0  0  4           0  0  0
   -1.3598    1.2049    3.3440 C   0  0  0  0  0  4           0  0  0
   -1.3330   -1.2052    3.3539 C   0  0  0  0  0  4           0  0  0
   -0.8455    1.2049    2.0443 C   0  0  0  0  0  4           0  0  0
   -0.8188   -1.2052    2.0543 C   0  0  0  0  0  4           0  0  0
   -3.2591    0.0053    7.9619 C   0  0  0  0  0  4           0  0  0
   -4.0882   -0.0083    6.8457 C   0  0  0  0  0  4           0  0  0
    2.0784    2.4282    0.1243 C   0  0  0  0  0  4           0  0  0
    2.3036   -0.8545   -0.4934 C   0  0  0  0  0  4           0  0  0
    3.6405    0.4811    0.4535 C   0  0  0  0  0  4           0  0  0
    0.0000    0.0000    0.0000 C   0  0  0  0  0  4           0  0  0
    2.2664    1.0423    0.7177 C   0  0  1  0  0  4           0  0  0
    1.8824   -2.0359   -1.2978 C   0  0  0  0  0  4           0  0  0
    2.8656   -3.1873   -1.1193 C   0  0  0  0  0  4           0  0  0
    2.4801   -4.4250   -1.9236 C   0  0  0  0  0  4           0  0  0
    3.4610   -5.5744   -1.7458 C   0  0  0  0  0  4           0  0  0
  1 21  1  0     0  0
  2  3  2  0     0  0
  2  4  1  0     0  0
  3  5  1  0     0  0
  4  8  1  0     0  0
  5  8  2  0     0  0
  6 22  2  0     0  0
  6 24  1  0     0  0
  6 25  1  0     0  0
  7 22  1  0     0  0
  7 23  2  0     0  0
  8  9  1  0     0  0
  9 10  1  0     0  0
  9 13  2  0     0  0
 10 11  1  0     0  0
 10 14  2  0     0  0
 11 15  2  0     0  0
 11 16  1  0     0  0
 12 17  2  0     0  0
 12 18  1  0     0  0
 12 24  1  0     0  0
 13 19  1  0     0  0
 14 20  1  0     0  0
 15 17  1  0     0  0
 16 18  2  0     0  0
 19 20  2  0     0  0
 21 25  1  0     0  0
 22 26  1  0     0  0
 23 25  1  0     0  0
 26 27  1  0     0  0
 27 28  1  0     0  0
 28 29  1  0     0  0
M  CHG  1   6   1
M  END
> <standard_type>
pIC50

> <# Confs.>
25

> <canonical_smiles>
CCCCC(N=CC1CO)=[N]1CC2=CC=C(C3=CC=CC=C3C4=NN=NN4)C=C2

> <standard_relation>
=

> <Publication_ID>
nan

> <predicted_activity_value>
7.823908740944319

> <actual_activity_value>
7.5376020021010435

> <Compound>
4

> <standard_units>
nM

> hash
11930142815789539851

$$$$
3
XXILIB    08252103513D 0   0.00000     0.00000

 29 32  0     1  0            999 V2000
    2.4802    1.5347   -2.3187 O   0  0  0  0  0  2           0  0  0
    2.2534   -0.3551    6.9478 N   0  0  0  0  0  3           0  0  0
    2.1811    0.3040    5.7995 N   0  0  0  0  0  3           0  0  0
    0.9812   -0.5299    7.3287 N   0  0  0  0  0  3           0  0  0
    0.8730    0.5474    5.4497 N   0  0  0  0  0  3           0  0  0
    1.4768   -0.0000   -0.0000 N   0  3  0  0  0  4           0  0  0
    3.6330   -0.6472    0.0795 N   0  0  0  0  0  3           0  0  0
    0.1337    0.0254    6.4085 C   0  0  0  0  0  4           0  0  0
   -1.3047    0.0092    6.5162 C   0  0  0  0  0  4           0  0  0
   -2.1389   -0.0014    5.3750 C   0  0  0  0  0  4           0  0  0
   -1.6098   -0.0004    4.0168 C   0  0  0  0  0  4           0  0  0
   -0.5728   -0.0000    1.3850 C   0  0  0  0  0  4           0  0  0
   -1.8748    0.0149    7.7999 C   0  0  0  0  0  4           0  0  0
   -3.5340   -0.0114    5.5648 C   0  0  0  0  0  4           0  0  0
   -1.3598    1.2049    3.3440 C   0  0  0  0  0  4           0  0  0
   -1.3330   -1.2052    3.3539 C   0  0  0  0  0  4           0  0  0
   -0.8455    1.2049    2.0443 C   0  0  0  0  0  4           0  0  0
   -0.8188   -1.2052    2.0543 C   0  0  0  0  0  4           0  0  0
   -3.2591    0.0053    7.9619 C   0  0  0  0  0  4           0  0  0
   -4.0882   -0.0083    6.8457 C   0  0  0  0  0  4           0  0  0
    2.0784    2.1650   -1.1065 C   0  0  0  0  0  4           0  0  0
    2.3036   -0.9867   -0.0000 C   0  0  0  0  0  4           0  0  0
    3.6405    0.6434    0.1522 C   0  0  0  0  0  4           0  0  0
    0.0000    0.0000    0.0000 C   0  0  0  0  0  4           0  0  0
    2.2664    1.2615    0.1004 C   0  0  1  0  0  4           0  0  0
    1.8824   -2.4121   -0.1060 C   0  0  0  0  0  4           0  0  0
    2.3319   -3.1991    1.1199 C   0  0  0  0  0  4           0  0  0
    1.9251   -4.6683    1.0620 C   0  0  0  0  0  4           0  0  0
    2.3734   -5.4542    2.2852 C   0  0  0  0  0  4           0  0  0
  1 21  1  0     0  0
  2  3  2  0     0  0
  2  4  1  0     0  0
  3  5  1  0     0  0
  4  8  1  0     0  0
  5  8  2  0     0  0
  6 22  2  0     0  0
  6 24  1  0     0  0
  6 25  1  0     0  0
  7 22  1  0     0  0
  7 23  2  0     0  0
  8  9  1  0     0  0
  9 10  1  0     0  0
  9 13  2  0     0  0
 10 11  1  0     0  0
 10 14  2  0     0  0
 11 15  2  0     0  0
 11 16  1  0     0  0
 12 17  2  0     0  0
 12 18  1  0     0  0
 12 24  1  0     0  0
 13 19  1  0     0  0
 14 20  1  0     0  0
 15 17  1  0     0  0
 16 18  2  0     0  0
 19 20  2  0     0  0
 21 25  1  0     0  0
 22 26  1  0     0  0
 23 25  1  0     0  0
 26 27  1  0     0  0
 27 28  1  0     0  0
 28 29  1  0     0  0
M  CHG  1   6   1
M  END
> <standard_type>
pIC50

> <# Confs.>
25

> <canonical_smiles>
CCCCC(N=CC1CO)=[N]1CC2=CC=C(C3=CC=CC=C3C4=NN=NN4)C=C2

> <standard_relation>
=

> <Publication_ID>
nan

> <predicted_activity_value>
7.823908740944319

> <actual_activity_value>
7.5376020021010435

> <Compound>
4

> <standard_units>
nM

> hash
11930142815789539851

$$$$
3
XXILIB    08252103513D 0   0.00000     0.00000

 29 32  0     1  0            999 V2000
    1.8066    1.4275   -2.2941 O   0  0  0  0  0  2           0  0  0
    2.2534   -0.3551    6.9478 N   0  0  0  0  0  3           0  0  0
    2.1811    0.3040    5.7995 N   0  0  0  0  0  3           0  0  0
    0.9812   -0.5299    7.3287 N   0  0  0  0  0  3           0  0  0
    0.8730    0.5474    5.4497 N   0  0  0  0  0  3           0  0  0
    1.4768   -0.0000    0.0000 N   0  3  0  0  0  4           0  0  0
    3.6330   -0.6472    0.0795 N   0  0  0  0  0  3           0  0  0
    0.1337    0.0254    6.4085 C   0  0  0  0  0  4           0  0  0
   -1.3047    0.0092    6.5162 C   0  0  0  0  0  4           0  0  0
   -2.1389   -0.0014    5.3750 C   0  0  0  0  0  4           0  0  0
   -1.6098   -0.0004    4.0168 C   0  0  0  0  0  4           0  0  0
   -0.5728   -0.0000    1.3850 C   0  0  0  0  0  4           0  0  0
   -1.8748    0.0149    7.7999 C   0  0  0  0  0  4           0  0  0
   -3.5340   -0.0114    5.5648 C   0  0  0  0  0  4           0  0  0
   -1.3598    1.2049    3.3440 C   0  0  0  0  0  4           0  0  0
   -1.3330   -1.2052    3.3539 C   0  0  0  0  0  4           0  0  0
   -0.8455    1.2049    2.0443 C   0  0  0  0  0  4           0  0  0
   -0.8188   -1.2052    2.0543 C   0  0  0  0  0  4           0  0  0
   -3.2591    0.0053    7.9619 C   0  0  0  0  0  4           0  0  0
   -4.0882   -0.0083    6.8457 C   0  0  0  0  0  4           0  0  0
    2.0784    2.1650   -1.1065 C   0  0  0  0  0  4           0  0  0
    2.3036   -0.9867    0.0000 C   0  0  0  0  0  4           0  0  0
    3.6405    0.6434    0.1522 C   0  0  0  0  0  4           0  0  0
    0.0000    0.0000    0.0000 C   0  0  0  0  0  4           0  0  0
    2.2664    1.2615    0.1004 C   0  0  1  0  0  4           0  0  0
    1.8824   -2.4121   -0.1060 C   0  0  0  0  0  4           0  0  0
    1.8234   -2.8492   -1.5653 C   0  0  0  0  0  4           0  0  0
    1.3963   -4.3045   -1.7304 C   0  0  0  0  0  4           0  0  0
    1.3372   -4.7412   -3.1866 C   0  0  0  0  0  4           0  0  0
  1 21  1  0     0  0
  2  3  2  0     0  0
  2  4  1  0     0  0
  3  5  1  0     0  0
  4  8  1  0     0  0
  5  8  2  0     0  0
  6 22  2  0     0  0
  6 24  1  0     0  0
  6 25  1  0     0  0
  7 22  1  0     0  0
  7 23  2  0     0  0
  8  9  1  0     0  0
  9 10  1  0     0  0
  9 13  2  0     0  0
 10 11  1  0     0  0
 10 14  2  0     0  0
 11 15  2  0     0  0
 11 16  1  0     0  0
 12 17  2  0     0  0
 12 18  1  0     0  0
 12 24  1  0     0  0
 13 19  1  0     0  0
 14 20  1  0     0  0
 15 17  1  0     0  0
 16 18  2  0     0  0
 19 20  2  0     0  0
 21 25  1  0     0  0
 22 26  1  0     0  0
 23 25  1  0     0  0
 26 27  1  0     0  0
 27 28  1  0     0  0
 28 29  1  0     0  0
M  CHG  1   6   1
M  END
> <standard_type>
pIC50

> <# Confs.>
25

> <canonical_smiles>
CCCCC(N=CC1CO)=[N]1CC2=CC=C(C3=CC=CC=C3C4=NN=NN4)C=C2

> <standard_relation>
=

> <Publication_ID>
nan

> <predicted_activity_value>
7.823908740944319

> <actual_activity_value>
7.5376020021010435

> <Compound>
4

> <standard_units>
nM

> hash
11930142815789539851

$$$$
3
XXILIB    08252103513D 0   0.00000     0.00000

 29 32  0     1  0            999 V2000
    2.4802    2.4884   -1.2407 O   0  0  0  0  0  2           0  0  0
    2.2445    0.4495    6.9500 N   0  0  0  0  0  3           0  0  0
    2.1874   -0.2171    5.8052 N   0  0  0  0  0  3           0  0  0
    0.9684    0.6015    7.3275 N   0  0  0  0  0  3           0  0  0
    0.8850   -0.4893    5.4551 N   0  0  0  0  0  3           0  0  0
    1.4768   -0.0000   -0.0000 N   0  3  0  0  0  4           0  0  0
    3.6330   -0.6003   -0.2547 N   0  0  0  0  0  3           0  0  0
    0.1337    0.0254    6.4085 C   0  0  0  0  0  4           0  0  0
   -1.3047    0.0092    6.5162 C   0  0  0  0  0  4           0  0  0
   -2.1389   -0.0014    5.3750 C   0  0  0  0  0  4           0  0  0
   -1.6098   -0.0004    4.0168 C   0  0  0  0  0  4           0  0  0
   -0.5728   -0.0000    1.3850 C   0  0  0  0  0  4           0  0  0
   -1.8748    0.0149    7.7999 C   0  0  0  0  0  4           0  0  0
   -3.5340   -0.0114    5.5648 C   0  0  0  0  0  4           0  0  0
   -1.3598    1.2049    3.3440 C   0  0  0  0  0  4           0  0  0
   -1.3330   -1.2052    3.3539 C   0  0  0  0  0  4           0  0  0
   -0.8455    1.2049    2.0443 C   0  0  0  0  0  4           0  0  0
   -0.8188   -1.2052    2.0543 C   0  0  0  0  0  4           0  0  0
   -3.2591    0.0053    7.9619 C   0  0  0  0  0  4           0  0  0
   -4.0882   -0.0083    6.8457 C   0  0  0  0  0  4           0  0  0
    2.0784    2.4282    0.1243 C   0  0  0  0  0  4           0  0  0
    2.3036   -0.8545   -0.4934 C   0  0  0  0  0  4           0  0  0
    3.6405    0.4811    0.4535 C   0  0  0  0  0  4           0  0  0
    0.0000    0.0000    0.0000 C   0  0  0  0  0  4           0  0  0
    2.2664    1.0423    0.7177 C   0  0  1  0  0  4           0  0  0
    1.8824   -2.0359   -1.2978 C   0  0  0  0  0  4           0  0  0
    1.6370   -3.2411   -0.3970 C   0  0  0  0  0  4           0  0  0
    1.2024   -4.4810   -1.1725 C   0  0  0  0  0  4           0  0  0
   -0.0895   -4.2702   -1.9479 C   0  0  0  0  0  4           0  0  0
  1 21  1  0     0  0
  2  3  2  0     0  0
  2  4  1  0     0  0
  3  5  1  0     0  0
  4  8  1  0     0  0
  5  8  2  0     0  0
  6 22  2  0     0  0
  6 24  1  0     0  0
  6 25  1  0     0  0
  7 22  1  0     0  0
  7 23  2  0     0  0
  8  9  1  0     0  0
  9 10  1  0     0  0
  9 13  2  0     0  0
 10 11  1  0     0  0
 10 14  2  0     0  0
 11 15  2  0     0  0
 11 16  1  0     0  0
 12 17  2  0     0  0
 12 18  1  0     0  0
 12 24  1  0     0  0
 13 19  1  0     0  0
 14 20  1  0     0  0
 15 17  1  0     0  0
 16 18  2  0     0  0
 19 20  2  0     0  0
 21 25  1  0     0  0
 22 26  1  0     0  0
 23 25  1  0     0  0
 26 27  1  0     0  0
 27 28  1  0     0  0
 28 29  1  0     0  0
M  CHG  1   6   1
M  END
> <standard_type>
pIC50

> <# Confs.>
25

> <canonical_smiles>
CCCCC(N=CC1CO)=[N]1CC2=CC=C(C3=CC=CC=C3C4=NN=NN4)C=C2

> <standard_relation>
=

> <Publication_ID>
nan

> <predicted_activity_value>
7.823908740944319

> <actual_activity_value>
7.5376020021010435

> <Compound>
4

> <standard_units>
nM

> hash
11930142815789539851

$$$$
3
XXILIB    08252103513D 0   0.00000     0.00000

 29 32  0     1  0            999 V2000
    2.4802    2.4884   -1.2407 O   0  0  0  0  0  2           0  0  0
    2.2445    0.4495    6.9500 N   0  0  0  0  0  3           0  0  0
    2.1874   -0.2171    5.8052 N   0  0  0  0  0  3           0  0  0
    0.9684    0.6015    7.3275 N   0  0  0  0  0  3           0  0  0
    0.8850   -0.4893    5.4551 N   0  0  0  0  0  3           0  0  0
    1.4768   -0.0000   -0.0000 N   0  3  0  0  0  4           0  0  0
    3.6330   -0.6003   -0.2547 N   0  0  0  0  0  3           0  0  0
    0.1337    0.0254    6.4085 C   0  0  0  0  0  4           0  0  0
   -1.3047    0.0092    6.5162 C   0  0  0  0  0  4           0  0  0
   -2.1389   -0.0014    5.3750 C   0  0  0  0  0  4           0  0  0
   -1.6098   -0.0004    4.0168 C   0  0  0  0  0  4           0  0  0
   -0.5728   -0.0000    1.3850 C   0  0  0  0  0  4           0  0  0
   -1.8748    0.0149    7.7999 C   0  0  0  0  0  4           0  0  0
   -3.5340   -0.0114    5.5648 C   0  0  0  0  0  4           0  0  0
   -1.3598    1.2049    3.3440 C   0  0  0  0  0  4           0  0  0
   -1.3330   -1.2052    3.3539 C   0  0  0  0  0  4           0  0  0
   -0.8455    1.2049    2.0443 C   0  0  0  0  0  4           0  0  0
   -0.8188   -1.2052    2.0543 C   0  0  0  0  0  4           0  0  0
   -3.2591    0.0053    7.9619 C   0  0  0  0  0  4           0  0  0
   -4.0882   -0.0083    6.8457 C   0  0  0  0  0  4           0  0  0
    2.0784    2.4282    0.1243 C   0  0  0  0  0  4           0  0  0
    2.3036   -0.8545   -0.4934 C   0  0  0  0  0  4           0  0  0
    3.6405    0.4811    0.4535 C   0  0  0  0  0  4           0  0  0
    0.0000    0.0000    0.0000 C   0  0  0  0  0  4           0  0  0
    2.2664    1.0423    0.7177 C   0  0  1  0  0  4           0  0  0
    1.8824   -2.0359   -1.2978 C   0  0  0  0  0  4           0  0  0
    1.8234   -1.6849   -2.7802 C   0  0  0  0  0  4           0  0  0
    1.3963   -2.8625   -3.6508 C   0  0  0  0  0  4           0  0  0
    0.0157   -3.3921   -3.2926 C   0  0  0  0  0  4           0  0  0
  1 21  1  0     0  0
  2  3  2  0     0  0
  2  4  1  0     0  0
  3  5  1  0     0  0
  4  8  1  0     0  0
  5  8  2  0     0  0
  6 22  2  0     0  0
  6 24  1  0     0  0
  6 25  1  0     0  0
  7 22  1  0     0  0
  7 23  2  0     0  0
  8  9  1  0     0  0
  9 10  1  0     0  0
  9 13  2  0     0  0
 10 11  1  0     0  0
 10 14  2  0     0  0
 11 15  2  0     0  0
 11 16  1  0     0  0
 12 17  2  0     0  0
 12 18  1  0     0  0
 12 24  1  0     0  0
 13 19  1  0     0  0
 14 20  1  0     0  0
 15 17  1  0     0  0
 16 18  2  0     0  0
 19 20  2  0     0  0
 21 25  1  0     0  0
 22 26  1  0     0  0
 23 25  1  0     0  0
 26 27  1  0     0  0
 27 28  1  0     0  0
 28 29  1  0     0  0
M  CHG  1   6   1
M  END
> <standard_type>
pIC50

> <# Confs.>
25

> <canonical_smiles>
CCCCC(N=CC1CO)=[N]1CC2=CC=C(C3=CC=CC=C3C4=NN=NN4)C=C2

> <standard_relation>
=

> <Publication_ID>
nan

> <predicted_activity_value>
7.823908740944319

> <actual_activity_value>
7.5376020021010435

> <Compound>
4

> <standard_units>
nM

> hash
11930142815789539851

$$$$
3
XXILIB    08252103513D 0   0.00000     0.00000

 29 32  0     1  0            999 V2000
    2.4802    2.4884   -1.2407 O   0  0  0  0  0  2           0  0  0
    1.4526    2.7172    6.6433 N   0  0  0  0  0  3           0  0  0
    1.7650    1.9056    5.6422 N   0  0  0  0  0  3           0  0  0
    0.2369    2.3227    7.0439 N   0  0  0  0  0  3           0  0  0
    0.7569    0.9996    5.4063 N   0  0  0  0  0  3           0  0  0
    1.4768   -0.0000   -0.0000 N   0  3  0  0  0  4           0  0  0
    3.6330   -0.6003   -0.2547 N   0  0  0  0  0  3           0  0  0
   -0.1903    1.2682    6.2832 C   0  0  0  0  0  4           0  0  0
   -1.4588    0.6035    6.4566 C   0  0  0  0  0  4           0  0  0
   -2.1389   -0.0014    5.3750 C   0  0  0  0  0  4           0  0  0
   -1.6098   -0.0004    4.0168 C   0  0  0  0  0  4           0  0  0
   -0.5728   -0.0000    1.3850 C   0  0  0  0  0  4           0  0  0
   -2.0238    0.5756    7.7422 C   0  0  0  0  0  4           0  0  0
   -3.3757   -0.6257    5.6260 C   0  0  0  0  0  4           0  0  0
   -1.3598    1.2049    3.3440 C   0  0  0  0  0  4           0  0  0
   -1.3330   -1.2052    3.3539 C   0  0  0  0  0  4           0  0  0
   -0.8455    1.2049    2.0443 C   0  0  0  0  0  4           0  0  0
   -0.8188   -1.2052    2.0543 C   0  0  0  0  0  4           0  0  0
   -3.2501   -0.0482    7.9654 C   0  0  0  0  0  4           0  0  0
   -3.9254   -0.6488    6.9086 C   0  0  0  0  0  4           0  0  0
    2.0784    2.4282    0.1243 C   0  0  0  0  0  4           0  0  0
    2.3036   -0.8545   -0.4934 C   0  0  0  0  0  4           0  0  0
    3.6405    0.4811    0.4535 C   0  0  0  0  0  4           0  0  0
    0.0000    0.0000    0.0000 C   0  0  0  0  0  4           0  0  0
    2.2664    1.0423    0.7177 C   0  0  1  0  0  4           0  0  0
    1.8824   -2.0359   -1.2978 C   0  0  0  0  0  4           0  0  0
    1.8234   -1.6849   -2.7802 C   0  0  0  0  0  4           0  0  0
    3.1680   -1.2220   -3.3329 C   0  0  0  0  0  4           0  0  0
    3.1096   -0.8715   -4.8122 C   0  0  0  0  0  4           0  0  0
  1 21  1  0     0  0
  2  3  2  0     0  0
  2  4  1  0     0  0
  3  5  1  0     0  0
  4  8  1  0     0  0
  5  8  2  0     0  0
  6 22  2  0     0  0
  6 24  1  0     0  0
  6 25  1  0     0  0
  7 22  1  0     0  0
  7 23  2  0     0  0
  8  9  1  0     0  0
  9 10  1  0     0  0
  9 13  2  0     0  0
 10 11  1  0     0  0
 10 14  2  0     0  0
 11 15  2  0     0  0
 11 16  1  0     0  0
 12 17  2  0     0  0
 12 18  1  0     0  0
 12 24  1  0     0  0
 13 19  1  0     0  0
 14 20  1  0     0  0
 15 17  1  0     0  0
 16 18  2  0     0  0
 19 20  2  0     0  0
 21 25  1  0     0  0
 22 26  1  0     0  0
 23 25  1  0     0  0
 26 27  1  0     0  0
 27 28  1  0     0  0
 28 29  1  0     0  0
M  CHG  1   6   1
M  END
> <standard_type>
pIC50

> <# Confs.>
25

> <canonical_smiles>
CCCCC(N=CC1CO)=[N]1CC2=CC=C(C3=CC=CC=C3C4=NN=NN4)C=C2

> <standard_relation>
=

> <Publication_ID>
nan

> <predicted_activity_value>
7.823908740944319

> <actual_activity_value>
7.5376020021010435

> <Compound>
4

> <standard_units>
nM

> hash
11930142815789539851

$$$$
3
XXILIB    08252103513D 0   0.00000     0.00000

 29 32  0     1  0            999 V2000
    2.4802    2.4884   -1.2407 O   0  0  0  0  0  2           0  0  0
    1.0290    2.9945    6.6512 N   0  0  0  0  0  3           0  0  0
    0.7002    3.1326    5.3740 N   0  0  0  0  0  3           0  0  0
    0.1434    2.1195    7.1452 N   0  0  0  0  0  3           0  0  0
   -0.3863    2.3511    5.0551 N   0  0  0  0  0  3           0  0  0
    1.4768   -0.0000   -0.0000 N   0  3  0  0  0  4           0  0  0
    3.6330   -0.6003   -0.2547 N   0  0  0  0  0  3           0  0  0
   -0.7262    1.7252    6.1646 C   0  0  0  0  0  4           0  0  0
   -1.8023    0.7854    6.3638 C   0  0  0  0  0  4           0  0  0
   -2.2627   -0.0541    5.3238 C   0  0  0  0  0  4           0  0  0
   -1.6853   -0.0335    3.9856 C   0  0  0  0  0  4           0  0  0
   -0.5728   -0.0000    1.3850 C   0  0  0  0  0  4           0  0  0
   -2.4046    0.7241    7.6312 C   0  0  0  0  0  4           0  0  0
   -3.3216   -0.9408    5.5975 C   0  0  0  0  0  4           0  0  0
   -0.6065   -0.8672    3.6556 C   0  0  0  0  0  4           0  0  0
   -2.1996    0.8168    2.9954 C   0  0  0  0  0  4           0  0  0
   -0.0582   -0.8520    2.3699 C   0  0  0  0  0  4           0  0  0
   -1.6514    0.8320    1.7099 C   0  0  0  0  0  4           0  0  0
   -3.4520   -0.1619    7.8774 C   0  0  0  0  0  4           0  0  0
   -3.9100   -0.9940    6.8618 C   0  0  0  0  0  4           0  0  0
    2.0784    2.4282    0.1243 C   0  0  0  0  0  4           0  0  0
    2.3036   -0.8545   -0.4934 C   0  0  0  0  0  4           0  0  0
    3.6405    0.4811    0.4535 C   0  0  0  0  0  4           0  0  0
    0.0000    0.0000    0.0000 C   0  0  0  0  0  4           0  0  0
    2.2664    1.0423    0.7177 C   0  0  1  0  0  4           0  0  0
    1.8824   -2.0359   -1.2978 C   0  0  0  0  0  4           0  0  0
    1.8234   -1.6849   -2.7802 C   0  0  0  0  0  4           0  0  0
    1.3963   -2.8625   -3.6508 C   0  0  0  0  0  4           0  0  0
    1.3372   -2.5127   -5.1303 C   0  0  0  0  0  4           0  0  0
  1 21  1  0     0  0
  2  3  2  0     0  0
  2  4  1  0     0  0
  3  5  1  0     0  0
  4  8  1  0     0  0
  5  8  2  0     0  0
  6 22  2  0     0  0
  6 24  1  0     0  0
  6 25  1  0     0  0
  7 22  1  0     0  0
  7 23  2  0     0  0
  8  9  1  0     0  0
  9 10  1  0     0  0
  9 13  2  0     0  0
 10 11  1  0     0  0
 10 14  2  0     0  0
 11 15  2  0     0  0
 11 16  1  0     0  0
 12 17  2  0     0  0
 12 18  1  0     0  0
 12 24  1  0     0  0
 13 19  1  0     0  0
 14 20  1  0     0  0
 15 17  1  0     0  0
 16 18  2  0     0  0
 19 20  2  0     0  0
 21 25  1  0     0  0
 22 26  1  0     0  0
 23 25  1  0     0  0
 26 27  1  0     0  0
 27 28  1  0     0  0
 28 29  1  0     0  0
M  CHG  1   6   1
M  END
> <standard_type>
pIC50

> <# Confs.>
25

> <canonical_smiles>
CCCCC(N=CC1CO)=[N]1CC2=CC=C(C3=CC=CC=C3C4=NN=NN4)C=C2

> <standard_relation>
=

> <Publication_ID>
nan

> <predicted_activity_value>
7.823908740944319

> <actual_activity_value>
7.5376020021010435

> <Compound>
4

> <standard_units>
nM

> hash
11930142815789539851

$$$$
3
XXILIB    08252103513D 0   0.00000     0.00000

 29 32  0     1  0            999 V2000
    2.4802    2.4884   -1.2407 O   0  0  0  0  0  2           0  0  0
    2.2445    0.4495    6.9500 N   0  0  0  0  0  3           0  0  0
    2.1874   -0.2171    5.8052 N   0  0  0  0  0  3           0  0  0
    0.9684    0.6015    7.3275 N   0  0  0  0  0  3           0  0  0
    0.8850   -0.4893    5.4551 N   0  0  0  0  0  3           0  0  0
    1.4768    0.0000   -0.0000 N   0  3  0  0  0  4           0  0  0
    3.6330   -0.6003   -0.2547 N   0  0  0  0  0  3           0  0  0
    0.1337    0.0254    6.4085 C   0  0  0  0  0  4           0  0  0
   -1.3047    0.0092    6.5162 C   0  0  0  0  0  4           0  0  0
   -2.1389   -0.0014    5.3750 C   0  0  0  0  0  4           0  0  0
   -1.6098   -0.0004    4.0168 C   0  0  0  0  0  4           0  0  0
   -0.5728   -0.0000    1.3850 C   0  0  0  0  0  4           0  0  0
   -1.8748    0.0149    7.7999 C   0  0  0  0  0  4           0  0  0
   -3.5340   -0.0114    5.5648 C   0  0  0  0  0  4           0  0  0
   -1.3598    1.2049    3.3440 C   0  0  0  0  0  4           0  0  0
   -1.3330   -1.2052    3.3539 C   0  0  0  0  0  4           0  0  0
   -0.8455    1.2049    2.0443 C   0  0  0  0  0  4           0  0  0
   -0.8188   -1.2052    2.0543 C   0  0  0  0  0  4           0  0  0
   -3.2591    0.0053    7.9619 C   0  0  0  0  0  4           0  0  0
   -4.0882   -0.0083    6.8457 C   0  0  0  0  0  4           0  0  0
    2.0784    2.4282    0.1243 C   0  0  0  0  0  4           0  0  0
    2.3036   -0.8545   -0.4934 C   0  0  0  0  0  4           0  0  0
    3.6405    0.4811    0.4535 C   0  0  0  0  0  4           0  0  0
    0.0000    0.0000    0.0000 C   0  0  0  0  0  4           0  0  0
    2.2664    1.0423    0.7177 C   0  0  1  0  0  4           0  0  0
    1.8824   -2.0359   -1.2978 C   0  0  0  0  0  4           0  0  0
    2.9588   -2.4092   -2.3108 C   0  0  0  0  0  4           0  0  0
    2.5770   -3.6158   -3.1628 C   0  0  0  0  0  4           0  0  0
    3.6509   -3.9887   -4.1739 C   0  0  0  0  0  4           0  0  0
  1 21  1  0     0  0
  2  3  2  0     0  0
  2  4  1  0     0  0
  3  5  1  0     0  0
  4  8  1  0     0  0
  5  8  2  0     0  0
  6 22  2  0     0  0
  6 24  1  0     0  0
  6 25  1  0     0  0
  7 22  1  0     0  0
  7 23  2  0     0  0
  8  9  1  0     0  0
  9 10  1  0     0  0
  9 13  2  0     0  0
 10 11  1  0     0  0
 10 14  2  0     0  0
 11 15  2  0     0  0
 11 16  1  0     0  0
 12 17  2  0     0  0
 12 18  1  0     0  0
 12 24  1  0     0  0
 13 19  1  0     0  0
 14 20  1  0     0  0
 15 17  1  0     0  0
 16 18  2  0     0  0
 19 20  2  0     0  0
 21 25  1  0     0  0
 22 26  1  0     0  0
 23 25  1  0     0  0
 26 27  1  0     0  0
 27 28  1  0     0  0
 28 29  1  0     0  0
M  CHG  1   6   1
M  END
> <standard_type>
pIC50

> <# Confs.>
25

> <canonical_smiles>
CCCCC(N=CC1CO)=[N]1CC2=CC=C(C3=CC=CC=C3C4=NN=NN4)C=C2

> <standard_relation>
=

> <Publication_ID>
nan

> <predicted_activity_value>
7.823908740944319

> <actual_activity_value>
7.5376020021010435

> <Compound>
4

> <standard_units>
nM

> hash
11930142815789539851

$$$$
3
XXILIB    08252103513D 0   0.00000     0.00000

 29 32  0     1  0            999 V2000
    2.4802    2.4884   -1.2407 O   0  0  0  0  0  2           0  0  0
    1.4526    2.7172    6.6433 N   0  0  0  0  0  3           0  0  0
    1.7650    1.9056    5.6422 N   0  0  0  0  0  3           0  0  0
    0.2369    2.3227    7.0439 N   0  0  0  0  0  3           0  0  0
    0.7569    0.9996    5.4063 N   0  0  0  0  0  3           0  0  0
    1.4768   -0.0000   -0.0000 N   0  3  0  0  0  4           0  0  0
    3.6330   -0.6003   -0.2547 N   0  0  0  0  0  3           0  0  0
   -0.1903    1.2682    6.2832 C   0  0  0  0  0  4           0  0  0
   -1.4588    0.6035    6.4566 C   0  0  0  0  0  4           0  0  0
   -2.1389   -0.0014    5.3750 C   0  0  0  0  0  4           0  0  0
   -1.6098   -0.0004    4.0168 C   0  0  0  0  0  4           0  0  0
   -0.5728   -0.0000    1.3850 C   0  0  0  0  0  4           0  0  0
   -2.0238    0.5756    7.7422 C   0  0  0  0  0  4           0  0  0
   -3.3757   -0.6257    5.6260 C   0  0  0  0  0  4           0  0  0
   -1.3598    1.2049    3.3440 C   0  0  0  0  0  4           0  0  0
   -1.3330   -1.2052    3.3539 C   0  0  0  0  0  4           0  0  0
   -0.8455    1.2049    2.0443 C   0  0  0  0  0  4           0  0  0
   -0.8188   -1.2052    2.0543 C   0  0  0  0  0  4           0  0  0
   -3.2501   -0.0482    7.9654 C   0  0  0  0  0  4           0  0  0
   -3.9254   -0.6488    6.9086 C   0  0  0  0  0  4           0  0  0
    2.0784    2.4282    0.1243 C   0  0  0  0  0  4           0  0  0
    2.3036   -0.8545   -0.4934 C   0  0  0  0  0  4           0  0  0
    3.6405    0.4811    0.4535 C   0  0  0  0  0  4           0  0  0
    0.0000    0.0000    0.0000 C   0  0  0  0  0  4           0  0  0
    2.2664    1.0423    0.7177 C   0  0  1  0  0  4           0  0  0
    1.8824   -2.0359   -1.2978 C   0  0  0  0  0  4           0  0  0
    1.6370   -3.2411   -0.3970 C   0  0  0  0  0  4           0  0  0
    1.2024   -4.4810   -1.1725 C   0  0  0  0  0  4           0  0  0
   -0.0895   -4.2702   -1.9479 C   0  0  0  0  0  4           0  0  0
  1 21  1  0     0  0
  2  3  2  0     0  0
  2  4  1  0     0  0
  3  5  1  0     0  0
  4  8  1  0     0  0
  5  8  2  0     0  0
  6 22  2  0     0  0
  6 24  1  0     0  0
  6 25  1  0     0  0
  7 22  1  0     0  0
  7 23  2  0     0  0
  8  9  1  0     0  0
  9 10  1  0     0  0
  9 13  2  0     0  0
 10 11  1  0     0  0
 10 14  2  0     0  0
 11 15  2  0     0  0
 11 16  1  0     0  0
 12 17  2  0     0  0
 12 18  1  0     0  0
 12 24  1  0     0  0
 13 19  1  0     0  0
 14 20  1  0     0  0
 15 17  1  0     0  0
 16 18  2  0     0  0
 19 20  2  0     0  0
 21 25  1  0     0  0
 22 26  1  0     0  0
 23 25  1  0     0  0
 26 27  1  0     0  0
 27 28  1  0     0  0
 28 29  1  0     0  0
M  CHG  1   6   1
M  END
> <standard_type>
pIC50

> <# Confs.>
25

> <canonical_smiles>
CCCCC(N=CC1CO)=[N]1CC2=CC=C(C3=CC=CC=C3C4=NN=NN4)C=C2

> <standard_relation>
=

> <Publication_ID>
nan

> <predicted_activity_value>
7.823908740944319

> <actual_activity_value>
7.5376020021010435

> <Compound>
4

> <standard_units>
nM

> hash
11930142815789539851

$$$$
3
XXILIB    08252103513D 0   0.00000     0.00000

 29 32  0     1  0            999 V2000
    2.4802    2.4884   -1.2407 O   0  0  0  0  0  2           0  0  0
    0.4968    3.5581    6.4353 N   0  0  0  0  0  3           0  0  0
    1.0444    2.7696    5.5206 N   0  0  0  0  0  3           0  0  0
   -0.6046    2.9107    6.8376 N   0  0  0  0  0  3           0  0  0
    0.2988    1.6274    5.3410 N   0  0  0  0  0  3           0  0  0
    1.4768   -0.0000   -0.0000 N   0  3  0  0  0  4           0  0  0
    3.6330   -0.6003   -0.2547 N   0  0  0  0  0  3           0  0  0
   -0.7262    1.7252    6.1646 C   0  0  0  0  0  4           0  0  0
   -1.8023    0.7854    6.3638 C   0  0  0  0  0  4           0  0  0
   -2.2627   -0.0541    5.3238 C   0  0  0  0  0  4           0  0  0
   -1.6853   -0.0335    3.9856 C   0  0  0  0  0  4           0  0  0
   -0.5728   -0.0000    1.3850 C   0  0  0  0  0  4           0  0  0
   -2.4046    0.7241    7.6312 C   0  0  0  0  0  4           0  0  0
   -3.3216   -0.9408    5.5975 C   0  0  0  0  0  4           0  0  0
   -0.6065   -0.8672    3.6556 C   0  0  0  0  0  4           0  0  0
   -2.1996    0.8168    2.9954 C   0  0  0  0  0  4           0  0  0
   -0.0582   -0.8520    2.3699 C   0  0  0  0  0  4           0  0  0
   -1.6514    0.8320    1.7099 C   0  0  0  0  0  4           0  0  0
   -3.4520   -0.1619    7.8774 C   0  0  0  0  0  4           0  0  0
   -3.9100   -0.9940    6.8618 C   0  0  0  0  0  4           0  0  0
    2.0784    2.4282    0.1243 C   0  0  0  0  0  4           0  0  0
    2.3036   -0.8545   -0.4934 C   0  0  0  0  0  4           0  0  0
    3.6405    0.4811    0.4535 C   0  0  0  0  0  4           0  0  0
    0.0000    0.0000    0.0000 C   0  0  0  0  0  4           0  0  0
    2.2664    1.0423    0.7177 C   0  0  1  0  0  4           0  0  0
    1.8824   -2.0359   -1.2978 C   0  0  0  0  0  4           0  0  0
    1.8234   -1.6849   -2.7802 C   0  0  0  0  0  4           0  0  0
    1.3963   -2.8625   -3.6508 C   0  0  0  0  0  4           0  0  0
    0.0157   -3.3921   -3.2926 C   0  0  0  0  0  4           0  0  0
  1 21  1  0     0  0
  2  3  2  0     0  0
  2  4  1  0     0  0
  3  5  1  0     0  0
  4  8  1  0     0  0
  5  8  2  0     0  0
  6 22  2  0     0  0
  6 24  1  0     0  0
  6 25  1  0     0  0
  7 22  1  0     0  0
  7 23  2  0     0  0
  8  9  1  0     0  0
  9 10  1  0     0  0
  9 13  2  0     0  0
 10 11  1  0     0  0
 10 14  2  0     0  0
 11 15  2  0     0  0
 11 16  1  0     0  0
 12 17  2  0     0  0
 12 18  1  0     0  0
 12 24  1  0     0  0
 13 19  1  0     0  0
 14 20  1  0     0  0
 15 17  1  0     0  0
 16 18  2  0     0  0
 19 20  2  0     0  0
 21 25  1  0     0  0
 22 26  1  0     0  0
 23 25  1  0     0  0
 26 27  1  0     0  0
 27 28  1  0     0  0
 28 29  1  0     0  0
M  CHG  1   6   1
M  END
> <standard_type>
pIC50

> <# Confs.>
25

> <canonical_smiles>
CCCCC(N=CC1CO)=[N]1CC2=CC=C(C3=CC=CC=C3C4=NN=NN4)C=C2

> <standard_relation>
=

> <Publication_ID>
nan

> <predicted_activity_value>
7.823908740944319

> <actual_activity_value>
7.5376020021010435

> <Compound>
4

> <standard_units>
nM

> hash
11930142815789539851

$$$$
3
XXILIB    08252103513D 0   0.00000     0.00000

 29 32  0     1  0            999 V2000
    2.4802    1.5347   -2.3187 O   0  0  0  0  0  2           0  0  0
    2.2534   -0.3551    6.9478 N   0  0  0  0  0  3           0  0  0
    2.1811    0.3040    5.7995 N   0  0  0  0  0  3           0  0  0
    0.9812   -0.5299    7.3287 N   0  0  0  0  0  3           0  0  0
    0.8730    0.5474    5.4497 N   0  0  0  0  0  3           0  0  0
    1.4768   -0.0000    0.0000 N   0  3  0  0  0  4           0  0  0
    3.6330   -0.6472    0.0795 N   0  0  0  0  0  3           0  0  0
    0.1337    0.0254    6.4085 C   0  0  0  0  0  4           0  0  0
   -1.3047    0.0092    6.5162 C   0  0  0  0  0  4           0  0  0
   -2.1389   -0.0014    5.3750 C   0  0  0  0  0  4           0  0  0
   -1.6098   -0.0004    4.0168 C   0  0  0  0  0  4           0  0  0
   -0.5728   -0.0000    1.3850 C   0  0  0  0  0  4           0  0  0
   -1.8748    0.0149    7.7999 C   0  0  0  0  0  4           0  0  0
   -3.5340   -0.0114    5.5648 C   0  0  0  0  0  4           0  0  0
   -1.3598    1.2049    3.3440 C   0  0  0  0  0  4           0  0  0
   -1.3330   -1.2052    3.3539 C   0  0  0  0  0  4           0  0  0
   -0.8455    1.2049    2.0443 C   0  0  0  0  0  4           0  0  0
   -0.8188   -1.2052    2.0543 C   0  0  0  0  0  4           0  0  0
   -3.2591    0.0053    7.9619 C   0  0  0  0  0  4           0  0  0
   -4.0882   -0.0083    6.8457 C   0  0  0  0  0  4           0  0  0
    2.0784    2.1650   -1.1065 C   0  0  0  0  0  4           0  0  0
    2.3036   -0.9867    0.0000 C   0  0  0  0  0  4           0  0  0
    3.6405    0.6434    0.1522 C   0  0  0  0  0  4           0  0  0
    0.0000    0.0000    0.0000 C   0  0  0  0  0  4           0  0  0
    2.2664    1.2615    0.1004 C   0  0  1  0  0  4           0  0  0
    1.8824   -2.4121   -0.1060 C   0  0  0  0  0  4           0  0  0
    2.4934   -3.0638   -1.3413 C   0  0  0  0  0  4           0  0  0
    2.0799   -2.3763   -2.6390 C   0  0  0  0  0  4           0  0  0
    2.6893   -3.0263   -3.8722 C   0  0  0  0  0  4           0  0  0
  1 21  1  0     0  0
  2  3  2  0     0  0
  2  4  1  0     0  0
  3  5  1  0     0  0
  4  8  1  0     0  0
  5  8  2  0     0  0
  6 22  2  0     0  0
  6 24  1  0     0  0
  6 25  1  0     0  0
  7 22  1  0     0  0
  7 23  2  0     0  0
  8  9  1  0     0  0
  9 10  1  0     0  0
  9 13  2  0     0  0
 10 11  1  0     0  0
 10 14  2  0     0  0
 11 15  2  0     0  0
 11 16  1  0     0  0
 12 17  2  0     0  0
 12 18  1  0     0  0
 12 24  1  0     0  0
 13 19  1  0     0  0
 14 20  1  0     0  0
 15 17  1  0     0  0
 16 18  2  0     0  0
 19 20  2  0     0  0
 21 25  1  0     0  0
 22 26  1  0     0  0
 23 25  1  0     0  0
 26 27  1  0     0  0
 27 28  1  0     0  0
 28 29  1  0     0  0
M  CHG  1   6   1
M  END
> <standard_type>
pIC50

> <# Confs.>
25

> <canonical_smiles>
CCCCC(N=CC1CO)=[N]1CC2=CC=C(C3=CC=CC=C3C4=NN=NN4)C=C2

> <standard_relation>
=

> <Publication_ID>
nan

> <predicted_activity_value>
7.823908740944319

> <actual_activity_value>
7.5376020021010435

> <Compound>
4

> <standard_units>
nM

> hash
11930142815789539851

$$$$
3
XXILIB    08252103513D 0   0.00000     0.00000

 29 32  0     1  0            999 V2000
    2.4802    2.4884   -1.2407 O   0  0  0  0  0  2           0  0  0
    1.4526    2.7172    6.6433 N   0  0  0  0  0  3           0  0  0
    1.7650    1.9056    5.6422 N   0  0  0  0  0  3           0  0  0
    0.2369    2.3227    7.0439 N   0  0  0  0  0  3           0  0  0
    0.7569    0.9996    5.4063 N   0  0  0  0  0  3           0  0  0
    1.4768    0.0000   -0.0000 N   0  3  0  0  0  4           0  0  0
    3.6330   -0.6003   -0.2547 N   0  0  0  0  0  3           0  0  0
   -0.1903    1.2682    6.2832 C   0  0  0  0  0  4           0  0  0
   -1.4588    0.6035    6.4566 C   0  0  0  0  0  4           0  0  0
   -2.1389   -0.0014    5.3750 C   0  0  0  0  0  4           0  0  0
   -1.6098   -0.0004    4.0168 C   0  0  0  0  0  4           0  0  0
   -0.5728   -0.0000    1.3850 C   0  0  0  0  0  4           0  0  0
   -2.0238    0.5756    7.7422 C   0  0  0  0  0  4           0  0  0
   -3.3757   -0.6257    5.6260 C   0  0  0  0  0  4           0  0  0
   -1.3598    1.2049    3.3440 C   0  0  0  0  0  4           0  0  0
   -1.3330   -1.2052    3.3539 C   0  0  0  0  0  4           0  0  0
   -0.8455    1.2049    2.0443 C   0  0  0  0  0  4           0  0  0
   -0.8188   -1.2052    2.0543 C   0  0  0  0  0  4           0  0  0
   -3.2501   -0.0482    7.9654 C   0  0  0  0  0  4           0  0  0
   -3.9254   -0.6488    6.9086 C   0  0  0  0  0  4           0  0  0
    2.0784    2.4282    0.1243 C   0  0  0  0  0  4           0  0  0
    2.3036   -0.8545   -0.4934 C   0  0  0  0  0  4           0  0  0
    3.6405    0.4811    0.4535 C   0  0  0  0  0  4           0  0  0
    0.0000    0.0000    0.0000 C   0  0  0  0  0  4           0  0  0
    2.2664    1.0423    0.7177 C   0  0  1  0  0  4           0  0  0
    1.8824   -2.0359   -1.2978 C   0  0  0  0  0  4           0  0  0
    2.3319   -3.3304   -0.6297 C   0  0  0  0  0  4           0  0  0
    1.9251   -4.5739   -1.4144 C   0  0  0  0  0  4           0  0  0
    2.3734   -5.8660   -0.7481 C   0  0  0  0  0  4           0  0  0
  1 21  1  0     0  0
  2  3  2  0     0  0
  2  4  1  0     0  0
  3  5  1  0     0  0
  4  8  1  0     0  0
  5  8  2  0     0  0
  6 22  2  0     0  0
  6 24  1  0     0  0
  6 25  1  0     0  0
  7 22  1  0     0  0
  7 23  2  0     0  0
  8  9  1  0     0  0
  9 10  1  0     0  0
  9 13  2  0     0  0
 10 11  1  0     0  0
 10 14  2  0     0  0
 11 15  2  0     0  0
 11 16  1  0     0  0
 12 17  2  0     0  0
 12 18  1  0     0  0
 12 24  1  0     0  0
 13 19  1  0     0  0
 14 20  1  0     0  0
 15 17  1  0     0  0
 16 18  2  0     0  0
 19 20  2  0     0  0
 21 25  1  0     0  0
 22 26  1  0     0  0
 23 25  1  0     0  0
 26 27  1  0     0  0
 27 28  1  0     0  0
 28 29  1  0     0  0
M  CHG  1   6   1
M  END
> <standard_type>
pIC50

> <# Confs.>
25

> <canonical_smiles>
CCCCC(N=CC1CO)=[N]1CC2=CC=C(C3=CC=CC=C3C4=NN=NN4)C=C2

> <standard_relation>
=

> <Publication_ID>
nan

> <predicted_activity_value>
7.823908740944319

> <actual_activity_value>
7.5376020021010435

> <Compound>
4

> <standard_units>
nM

> hash
11930142815789539851

$$$$
1
XXILIB    08252103513D 0   0.00000     0.00000

 30 33  0     1  0            999 V2000
    5.0018    1.5001    0.0754 Cl  0  0  0  0  0  1           0  0  0
    1.6088    2.9014    1.4055 O   0  0  0  0  0  2           0  0  0
   -5.3910   -1.4412    2.9777 N   0  0  0  0  0  3           0  0  0
   -5.3189   -2.5916    3.6333 N   0  0  0  0  0  3           0  0  0
   -4.6472   -0.5866    3.6928 N   0  0  0  0  0  3           0  0  0
   -4.5362   -2.4722    4.7581 N   0  0  0  0  0  3           0  0  0
    1.4523    0.0000    0.0000 N   0  0  0  0  0  3           0  0  0
    3.5402   -0.7587    0.0177 N   0  0  0  0  0  3           0  0  0
    3.5479    0.6111    0.0382 C   0  0  0  0  0  4           0  0  0
   -4.1215   -1.2207    4.7857 C   0  0  0  0  0  4           0  0  0
    2.2705   -1.1132    0.0000 C   0  0  0  0  0  4           0  0  0
    2.2622    1.1181    0.0299 C   0  0  0  0  0  4           0  0  0
   -3.2747   -0.5838    5.7647 C   0  0  0  0  0  4           0  0  0
   -2.0364    0.0012    5.4141 C   0  0  0  0  0  4           0  0  0
   -1.5275    0.0005    4.0481 C   0  0  0  0  0  4           0  0  0
   -0.5412    0.0000    1.3973 C   0  0  0  0  0  4           0  0  0
   -3.7044   -0.5629    7.1019 C   0  0  0  0  0  4           0  0  0
   -1.2671    0.6012    6.4297 C   0  0  0  0  0  4           0  0  0
   -1.2884   -1.2046    3.3712 C   0  0  0  0  0  4           0  0  0
   -1.2624    1.2052    3.3807 C   0  0  0  0  0  4           0  0  0
   -0.7987   -1.2048    2.0620 C   0  0  0  0  0  4           0  0  0
   -0.7726    1.2049    2.0716 C   0  0  0  0  0  4           0  0  0
   -2.9250    0.0369    8.0896 C   0  0  0  0  0  4           0  0  0
   -1.7078    0.6199    7.7539 C   0  0  0  0  0  4           0  0  0
    1.7712    2.5125    0.0484 C   0  0  0  0  0  4           0  0  0
    0.0000   -0.0000    0.0000 C   0  0  0  0  0  4           0  0  0
    1.7871   -2.5213   -0.0137 C   0  0  0  0  0  4           0  0  0
    2.5640   -3.3678   -1.0157 C   0  0  0  0  0  4           0  0  0
    2.1181   -4.8292   -1.0819 C   0  0  0  0  0  4           0  0  0
    2.9134   -5.6445   -2.0907 C   0  0  0  0  0  4           0  0  0
  1  9  1  0     0  0
  2 25  1  0     0  0
  3  4  2  0     0  0
  3  5  1  0     0  0
  4  6  1  0     0  0
  5 10  1  0     0  0
  6 10  2  0     0  0
  7 11  1  0     0  0
  7 12  1  0     0  0
  7 26  1  0     0  0
  8  9  1  0     0  0
  8 11  2  0     0  0
  9 12  2  0     0  0
 10 13  1  0     0  0
 11 27  1  0     0  0
 12 25  1  0     0  0
 13 14  1  0     0  0
 13 17  2  0     0  0
 14 15  1  0     0  0
 14 18  2  0     0  0
 15 19  2  0     0  0
 15 20  1  0     0  0
 16 21  2  0     0  0
 16 22  1  0     0  0
 16 26  1  0     0  0
 17 23  1  0     0  0
 18 24  1  0     0  0
 19 21  1  0     0  0
 20 22  2  0     0  0
 23 24  2  0     0  0
 27 28  1  0     0  0
 28 29  1  0     0  0
 29 30  1  0     0  0
M  END
> <standard_type>
pIC50

> <# Confs.>
25

> <canonical_smiles>
ClC(N=C1CCCC)=C(CO)N1CC2=CC=C(C3=CC=CC=C3C4=NN=NN4)C=C2

> <standard_relation>
=

> <Publication_ID>
nan

> <predicted_activity_value>
7.853871964321762

> <actual_activity_value>
7.721246399047171

> <Compound>
2

> <standard_units>
nM

> hash
1860001942647851610

$$$$
1
XXILIB    08252103513D 0   0.00000     0.00000

 30 33  0     1  0            999 V2000
    5.0018    1.5001    0.0754 Cl  0  0  0  0  0  1           0  0  0
    1.6088    2.9014    1.4055 O   0  0  0  0  0  2           0  0  0
    2.0595   -1.5386    5.7448 N   0  0  0  0  0  3           0  0  0
    1.5495   -2.6808    6.1847 N   0  0  0  0  0  3           0  0  0
    1.0508   -0.6594    5.8109 N   0  0  0  0  0  3           0  0  0
    0.2258   -2.5322    6.5281 N   0  0  0  0  0  3           0  0  0
    1.4523    0.0000    0.0000 N   0  0  0  0  0  3           0  0  0
    3.5402   -0.7587    0.0177 N   0  0  0  0  0  3           0  0  0
    3.5479    0.6111    0.0382 C   0  0  0  0  0  4           0  0  0
   -0.0750   -1.2699    6.2931 C   0  0  0  0  0  4           0  0  0
    2.2705   -1.1132    0.0000 C   0  0  0  0  0  4           0  0  0
    2.2622    1.1181    0.0299 C   0  0  0  0  0  4           0  0  0
   -1.3406   -0.6047    6.4852 C   0  0  0  0  0  4           0  0  0
   -2.0364    0.0012    5.4141 C   0  0  0  0  0  4           0  0  0
   -1.5275    0.0005    4.0481 C   0  0  0  0  0  4           0  0  0
   -0.5412    0.0000    1.3973 C   0  0  0  0  0  4           0  0  0
   -1.8769   -0.5587    7.7827 C   0  0  0  0  0  4           0  0  0
   -3.2654    0.6330    5.6853 C   0  0  0  0  0  4           0  0  0
   -1.2884   -1.2046    3.3712 C   0  0  0  0  0  4           0  0  0
   -1.2624    1.2052    3.3807 C   0  0  0  0  0  4           0  0  0
   -0.7987   -1.2048    2.0620 C   0  0  0  0  0  4           0  0  0
   -0.7726    1.2049    2.0716 C   0  0  0  0  0  4           0  0  0
   -3.0953    0.0729    8.0261 C   0  0  0  0  0  4           0  0  0
   -3.7901    0.6672    6.9782 C   0  0  0  0  0  4           0  0  0
    1.7712    2.5125    0.0484 C   0  0  0  0  0  4           0  0  0
    0.0000    0.0000    0.0000 C   0  0  0  0  0  4           0  0  0
    1.7871   -2.5213   -0.0137 C   0  0  0  0  0  4           0  0  0
    2.5640   -3.3678   -1.0157 C   0  0  0  0  0  4           0  0  0
    2.1181   -4.8292   -1.0819 C   0  0  0  0  0  4           0  0  0
    2.9134   -5.6445   -2.0907 C   0  0  0  0  0  4           0  0  0
  1  9  1  0     0  0
  2 25  1  0     0  0
  3  4  2  0     0  0
  3  5  1  0     0  0
  4  6  1  0     0  0
  5 10  1  0     0  0
  6 10  2  0     0  0
  7 11  1  0     0  0
  7 12  1  0     0  0
  7 26  1  0     0  0
  8  9  1  0     0  0
  8 11  2  0     0  0
  9 12  2  0     0  0
 10 13  1  0     0  0
 11 27  1  0     0  0
 12 25  1  0     0  0
 13 14  1  0     0  0
 13 17  2  0     0  0
 14 15  1  0     0  0
 14 18  2  0     0  0
 15 19  2  0     0  0
 15 20  1  0     0  0
 16 21  2  0     0  0
 16 22  1  0     0  0
 16 26  1  0     0  0
 17 23  1  0     0  0
 18 24  1  0     0  0
 19 21  1  0     0  0
 20 22  2  0     0  0
 23 24  2  0     0  0
 27 28  1  0     0  0
 28 29  1  0     0  0
 29 30  1  0     0  0
M  END
> <standard_type>
pIC50

> <# Confs.>
25

> <canonical_smiles>
ClC(N=C1CCCC)=C(CO)N1CC2=CC=C(C3=CC=CC=C3C4=NN=NN4)C=C2

> <standard_relation>
=

> <Publication_ID>
nan

> <predicted_activity_value>
7.853871964321762

> <actual_activity_value>
7.721246399047171

> <Compound>
2

> <standard_units>
nM

> hash
1860001942647851610

$$$$
1
XXILIB    08252103513D 0   0.00000     0.00000

 30 33  0     1  0            999 V2000
    5.0018    1.5001    0.0754 Cl  0  0  0  0  0  1           0  0  0
    1.6088    2.9014    1.4055 O   0  0  0  0  0  2           0  0  0
   -5.3910   -1.4412    2.9777 N   0  0  0  0  0  3           0  0  0
   -5.3189   -2.5916    3.6333 N   0  0  0  0  0  3           0  0  0
   -4.6472   -0.5866    3.6928 N   0  0  0  0  0  3           0  0  0
   -4.5362   -2.4722    4.7581 N   0  0  0  0  0  3           0  0  0
    1.4523    0.0000    0.0000 N   0  0  0  0  0  3           0  0  0
    3.5402   -0.7587    0.0177 N   0  0  0  0  0  3           0  0  0
    3.5479    0.6111    0.0382 C   0  0  0  0  0  4           0  0  0
   -4.1215   -1.2207    4.7857 C   0  0  0  0  0  4           0  0  0
    2.2705   -1.1132    0.0000 C   0  0  0  0  0  4           0  0  0
    2.2622    1.1181    0.0299 C   0  0  0  0  0  4           0  0  0
   -3.2747   -0.5838    5.7647 C   0  0  0  0  0  4           0  0  0
   -2.0364    0.0012    5.4141 C   0  0  0  0  0  4           0  0  0
   -1.5275    0.0005    4.0481 C   0  0  0  0  0  4           0  0  0
   -0.5412    0.0000    1.3973 C   0  0  0  0  0  4           0  0  0
   -3.7044   -0.5629    7.1019 C   0  0  0  0  0  4           0  0  0
   -1.2671    0.6012    6.4297 C   0  0  0  0  0  4           0  0  0
   -1.2884   -1.2046    3.3712 C   0  0  0  0  0  4           0  0  0
   -1.2624    1.2052    3.3807 C   0  0  0  0  0  4           0  0  0
   -0.7987   -1.2048    2.0620 C   0  0  0  0  0  4           0  0  0
   -0.7726    1.2049    2.0716 C   0  0  0  0  0  4           0  0  0
   -2.9250    0.0369    8.0896 C   0  0  0  0  0  4           0  0  0
   -1.7078    0.6199    7.7539 C   0  0  0  0  0  4           0  0  0
    1.7712    2.5125    0.0484 C   0  0  0  0  0  4           0  0  0
    0.0000   -0.0000    0.0000 C   0  0  0  0  0  4           0  0  0
    1.7871   -2.5213   -0.0137 C   0  0  0  0  0  4           0  0  0
    2.5640   -3.3678   -1.0157 C   0  0  0  0  0  4           0  0  0
    2.4668   -2.8768   -2.4609 C   0  0  0  0  0  4           0  0  0
    3.2529   -3.7434   -3.4334 C   0  0  0  0  0  4           0  0  0
  1  9  1  0     0  0
  2 25  1  0     0  0
  3  4  2  0     0  0
  3  5  1  0     0  0
  4  6  1  0     0  0
  5 10  1  0     0  0
  6 10  2  0     0  0
  7 11  1  0     0  0
  7 12  1  0     0  0
  7 26  1  0     0  0
  8  9  1  0     0  0
  8 11  2  0     0  0
  9 12  2  0     0  0
 10 13  1  0     0  0
 11 27  1  0     0  0
 12 25  1  0     0  0
 13 14  1  0     0  0
 13 17  2  0     0  0
 14 15  1  0     0  0
 14 18  2  0     0  0
 15 19  2  0     0  0
 15 20  1  0     0  0
 16 21  2  0     0  0
 16 22  1  0     0  0
 16 26  1  0     0  0
 17 23  1  0     0  0
 18 24  1  0     0  0
 19 21  1  0     0  0
 20 22  2  0     0  0
 23 24  2  0     0  0
 27 28  1  0     0  0
 28 29  1  0     0  0
 29 30  1  0     0  0
M  END
> <standard_type>
pIC50

> <# Confs.>
25

> <canonical_smiles>
ClC(N=C1CCCC)=C(CO)N1CC2=CC=C(C3=CC=CC=C3C4=NN=NN4)C=C2

> <standard_relation>
=

> <Publication_ID>
nan

> <predicted_activity_value>
7.853871964321762

> <actual_activity_value>
7.721246399047171

> <Compound>
2

> <standard_units>
nM

> hash
1860001942647851610

$$$$
1
XXILIB    08252103513D 0   0.00000     0.00000

 30 33  0     1  0            999 V2000
    5.0018    1.5001    0.0754 Cl  0  0  0  0  0  1           0  0  0
    1.6088    2.9014    1.4055 O   0  0  0  0  0  2           0  0  0
    2.0595   -1.5386    5.7448 N   0  0  0  0  0  3           0  0  0
    1.5495   -2.6808    6.1847 N   0  0  0  0  0  3           0  0  0
    1.0508   -0.6594    5.8109 N   0  0  0  0  0  3           0  0  0
    0.2258   -2.5322    6.5281 N   0  0  0  0  0  3           0  0  0
    1.4523    0.0000    0.0000 N   0  0  0  0  0  3           0  0  0
    3.5402   -0.7587    0.0177 N   0  0  0  0  0  3           0  0  0
    3.5479    0.6111    0.0382 C   0  0  0  0  0  4           0  0  0
   -0.0750   -1.2699    6.2931 C   0  0  0  0  0  4           0  0  0
    2.2705   -1.1132    0.0000 C   0  0  0  0  0  4           0  0  0
    2.2622    1.1181    0.0299 C   0  0  0  0  0  4           0  0  0
   -1.3406   -0.6047    6.4852 C   0  0  0  0  0  4           0  0  0
   -2.0364    0.0012    5.4141 C   0  0  0  0  0  4           0  0  0
   -1.5275    0.0005    4.0481 C   0  0  0  0  0  4           0  0  0
   -0.5412    0.0000    1.3973 C   0  0  0  0  0  4           0  0  0
   -1.8769   -0.5587    7.7827 C   0  0  0  0  0  4           0  0  0
   -3.2654    0.6330    5.6853 C   0  0  0  0  0  4           0  0  0
   -1.2884   -1.2046    3.3712 C   0  0  0  0  0  4           0  0  0
   -1.2624    1.2052    3.3807 C   0  0  0  0  0  4           0  0  0
   -0.7987   -1.2048    2.0620 C   0  0  0  0  0  4           0  0  0
   -0.7726    1.2049    2.0716 C   0  0  0  0  0  4           0  0  0
   -3.0953    0.0729    8.0261 C   0  0  0  0  0  4           0  0  0
   -3.7901    0.6672    6.9782 C   0  0  0  0  0  4           0  0  0
    1.7712    2.5125    0.0484 C   0  0  0  0  0  4           0  0  0
    0.0000    0.0000    0.0000 C   0  0  0  0  0  4           0  0  0
    1.7871   -2.5213   -0.0137 C   0  0  0  0  0  4           0  0  0
    2.5640   -3.3678   -1.0157 C   0  0  0  0  0  4           0  0  0
    2.4668   -2.8768   -2.4609 C   0  0  0  0  0  4           0  0  0
    3.2529   -3.7434   -3.4334 C   0  0  0  0  0  4           0  0  0
  1  9  1  0     0  0
  2 25  1  0     0  0
  3  4  2  0     0  0
  3  5  1  0     0  0
  4  6  1  0     0  0
  5 10  1  0     0  0
  6 10  2  0     0  0
  7 11  1  0     0  0
  7 12  1  0     0  0
  7 26  1  0     0  0
  8  9  1  0     0  0
  8 11  2  0     0  0
  9 12  2  0     0  0
 10 13  1  0     0  0
 11 27  1  0     0  0
 12 25  1  0     0  0
 13 14  1  0     0  0
 13 17  2  0     0  0
 14 15  1  0     0  0
 14 18  2  0     0  0
 15 19  2  0     0  0
 15 20  1  0     0  0
 16 21  2  0     0  0
 16 22  1  0     0  0
 16 26  1  0     0  0
 17 23  1  0     0  0
 18 24  1  0     0  0
 19 21  1  0     0  0
 20 22  2  0     0  0
 23 24  2  0     0  0
 27 28  1  0     0  0
 28 29  1  0     0  0
 29 30  1  0     0  0
M  END
> <standard_type>
pIC50

> <# Confs.>
25

> <canonical_smiles>
ClC(N=C1CCCC)=C(CO)N1CC2=CC=C(C3=CC=CC=C3C4=NN=NN4)C=C2

> <standard_relation>
=

> <Publication_ID>
nan

> <predicted_activity_value>
7.853871964321762

> <actual_activity_value>
7.721246399047171

> <Compound>
2

> <standard_units>
nM

> hash
1860001942647851610

$$$$
1
XXILIB    08252103513D 0   0.00000     0.00000

 30 33  0     1  0            999 V2000
    5.0018   -1.5001   -0.0754 Cl  0  0  0  0  0  1           0  0  0
    1.6088   -2.9014   -1.4055 O   0  0  0  0  0  2           0  0  0
   -0.0511    3.8132    5.0461 N   0  0  0  0  0  3           0  0  0
   -1.2215    4.4117    5.2204 N   0  0  0  0  0  3           0  0  0
   -0.2591    2.5359    5.3926 N   0  0  0  0  0  3           0  0  0
   -2.1686    3.5239    5.6752 N   0  0  0  0  0  3           0  0  0
    1.4523   -0.0000   -0.0000 N   0  0  0  0  0  3           0  0  0
    3.5402    0.7587   -0.0177 N   0  0  0  0  0  3           0  0  0
    3.5479   -0.6111   -0.0382 C   0  0  0  0  0  4           0  0  0
   -1.5601    2.3584    5.7778 C   0  0  0  0  0  4           0  0  0
    2.2705    1.1132    0.0000 C   0  0  0  0  0  4           0  0  0
    2.2622   -1.1181   -0.0299 C   0  0  0  0  0  4           0  0  0
   -2.1134    1.0997    6.2146 C   0  0  0  0  0  4           0  0  0
   -2.1258   -0.0409    5.3794 C   0  0  0  0  0  4           0  0  0
   -1.5873   -0.0271    4.0249 C   0  0  0  0  0  4           0  0  0
   -0.5412    0.0000    1.3973 C   0  0  0  0  0  4           0  0  0
   -2.6602    1.0267    7.5064 C   0  0  0  0  0  4           0  0  0
   -2.6868   -1.2318    5.8798 C   0  0  0  0  0  4           0  0  0
   -2.1086    0.8402    3.0535 C   0  0  0  0  0  4           0  0  0
   -0.5377   -0.8833    3.6614 C   0  0  0  0  0  4           0  0  0
   -1.5932    0.8520    1.7543 C   0  0  0  0  0  4           0  0  0
   -0.0224   -0.8716    2.3622 C   0  0  0  0  0  4           0  0  0
   -3.2102   -0.1636    7.9791 C   0  0  0  0  0  4           0  0  0
   -3.2223   -1.2927    7.1673 C   0  0  0  0  0  4           0  0  0
    1.7712   -2.5125   -0.0484 C   0  0  0  0  0  4           0  0  0
    0.0000    0.0000    0.0000 C   0  0  0  0  0  4           0  0  0
    1.7871    2.5213    0.0137 C   0  0  0  0  0  4           0  0  0
    1.5933    3.0579   -1.4000 C   0  0  0  0  0  4           0  0  0
    1.0965    4.5032   -1.4603 C   0  0  0  0  0  4           0  0  0
    0.9141    5.0064   -2.8845 C   0  0  0  0  0  4           0  0  0
  1  9  1  0     0  0
  2 25  1  0     0  0
  3  4  2  0     0  0
  3  5  1  0     0  0
  4  6  1  0     0  0
  5 10  1  0     0  0
  6 10  2  0     0  0
  7 11  1  0     0  0
  7 12  1  0     0  0
  7 26  1  0     0  0
  8  9  1  0     0  0
  8 11  2  0     0  0
  9 12  2  0     0  0
 10 13  1  0     0  0
 11 27  1  0     0  0
 12 25  1  0     0  0
 13 14  1  0     0  0
 13 17  2  0     0  0
 14 15  1  0     0  0
 14 18  2  0     0  0
 15 19  2  0     0  0
 15 20  1  0     0  0
 16 21  2  0     0  0
 16 22  1  0     0  0
 16 26  1  0     0  0
 17 23  1  0     0  0
 18 24  1  0     0  0
 19 21  1  0     0  0
 20 22  2  0     0  0
 23 24  2  0     0  0
 27 28  1  0     0  0
 28 29  1  0     0  0
 29 30  1  0     0  0
M  END
> <standard_type>
pIC50

> <# Confs.>
25

> <canonical_smiles>
ClC(N=C1CCCC)=C(CO)N1CC2=CC=C(C3=CC=CC=C3C4=NN=NN4)C=C2

> <standard_relation>
=

> <Publication_ID>
nan

> <predicted_activity_value>
7.853871964321762

> <actual_activity_value>
7.721246399047171

> <Compound>
2

> <standard_units>
nM

> hash
1860001942647851610

$$$$
1
XXILIB    08252103513D 0   0.00000     0.00000

 30 33  0     1  0            999 V2000
    5.0018   -1.5001   -0.0754 Cl  0  0  0  0  0  1           0  0  0
    1.6088   -2.9014   -1.4055 O   0  0  0  0  0  2           0  0  0
   -0.0511    3.8132    5.0461 N   0  0  0  0  0  3           0  0  0
   -1.2215    4.4117    5.2204 N   0  0  0  0  0  3           0  0  0
   -0.2591    2.5359    5.3926 N   0  0  0  0  0  3           0  0  0
   -2.1686    3.5239    5.6752 N   0  0  0  0  0  3           0  0  0
    1.4523    0.0000    0.0000 N   0  0  0  0  0  3           0  0  0
    3.5402    0.7587   -0.0177 N   0  0  0  0  0  3           0  0  0
    3.5479   -0.6111   -0.0382 C   0  0  0  0  0  4           0  0  0
   -1.5601    2.3584    5.7778 C   0  0  0  0  0  4           0  0  0
    2.2705    1.1132    0.0000 C   0  0  0  0  0  4           0  0  0
    2.2622   -1.1181   -0.0299 C   0  0  0  0  0  4           0  0  0
   -2.1134    1.0997    6.2146 C   0  0  0  0  0  4           0  0  0
   -2.1258   -0.0409    5.3794 C   0  0  0  0  0  4           0  0  0
   -1.5873   -0.0271    4.0249 C   0  0  0  0  0  4           0  0  0
   -0.5412    0.0000    1.3973 C   0  0  0  0  0  4           0  0  0
   -2.6602    1.0267    7.5064 C   0  0  0  0  0  4           0  0  0
   -2.6868   -1.2318    5.8798 C   0  0  0  0  0  4           0  0  0
   -2.1086    0.8402    3.0535 C   0  0  0  0  0  4           0  0  0
   -0.5377   -0.8833    3.6614 C   0  0  0  0  0  4           0  0  0
   -1.5932    0.8520    1.7543 C   0  0  0  0  0  4           0  0  0
   -0.0224   -0.8716    2.3622 C   0  0  0  0  0  4           0  0  0
   -3.2102   -0.1636    7.9791 C   0  0  0  0  0  4           0  0  0
   -3.2223   -1.2927    7.1673 C   0  0  0  0  0  4           0  0  0
    1.7712   -2.5125   -0.0484 C   0  0  0  0  0  4           0  0  0
    0.0000    0.0000    0.0000 C   0  0  0  0  0  4           0  0  0
    1.7871    2.5213    0.0137 C   0  0  0  0  0  4           0  0  0
    2.5640    3.3678    1.0157 C   0  0  0  0  0  4           0  0  0
    2.4668    2.8768    2.4609 C   0  0  0  0  0  4           0  0  0
    3.2529    3.7434    3.4334 C   0  0  0  0  0  4           0  0  0
  1  9  1  0     0  0
  2 25  1  0     0  0
  3  4  2  0     0  0
  3  5  1  0     0  0
  4  6  1  0     0  0
  5 10  1  0     0  0
  6 10  2  0     0  0
  7 11  1  0     0  0
  7 12  1  0     0  0
  7 26  1  0     0  0
  8  9  1  0     0  0
  8 11  2  0     0  0
  9 12  2  0     0  0
 10 13  1  0     0  0
 11 27  1  0     0  0
 12 25  1  0     0  0
 13 14  1  0     0  0
 13 17  2  0     0  0
 14 15  1  0     0  0
 14 18  2  0     0  0
 15 19  2  0     0  0
 15 20  1  0     0  0
 16 21  2  0     0  0
 16 22  1  0     0  0
 16 26  1  0     0  0
 17 23  1  0     0  0
 18 24  1  0     0  0
 19 21  1  0     0  0
 20 22  2  0     0  0
 23 24  2  0     0  0
 27 28  1  0     0  0
 28 29  1  0     0  0
 29 30  1  0     0  0
M  END
> <standard_type>
pIC50

> <# Confs.>
25

> <canonical_smiles>
ClC(N=C1CCCC)=C(CO)N1CC2=CC=C(C3=CC=CC=C3C4=NN=NN4)C=C2

> <standard_relation>
=

> <Publication_ID>
nan

> <predicted_activity_value>
7.853871964321762

> <actual_activity_value>
7.721246399047171

> <Compound>
2

> <standard_units>
nM

> hash
1860001942647851610

$$$$
1
XXILIB    08252103513D 0   0.00000     0.00000

 30 33  0     1  0            999 V2000
    5.0018   -1.5001   -0.0754 Cl  0  0  0  0  0  1           0  0  0
    1.6088   -2.9014   -1.4055 O   0  0  0  0  0  2           0  0  0
   -0.0511    3.8132    5.0461 N   0  0  0  0  0  3           0  0  0
   -1.2215    4.4117    5.2204 N   0  0  0  0  0  3           0  0  0
   -0.2591    2.5359    5.3926 N   0  0  0  0  0  3           0  0  0
   -2.1686    3.5239    5.6752 N   0  0  0  0  0  3           0  0  0
    1.4523   -0.0000   -0.0000 N   0  0  0  0  0  3           0  0  0
    3.5402    0.7587   -0.0177 N   0  0  0  0  0  3           0  0  0
    3.5479   -0.6111   -0.0382 C   0  0  0  0  0  4           0  0  0
   -1.5601    2.3584    5.7778 C   0  0  0  0  0  4           0  0  0
    2.2705    1.1132    0.0000 C   0  0  0  0  0  4           0  0  0
    2.2622   -1.1181   -0.0299 C   0  0  0  0  0  4           0  0  0
   -2.1134    1.0997    6.2146 C   0  0  0  0  0  4           0  0  0
   -2.1258   -0.0409    5.3794 C   0  0  0  0  0  4           0  0  0
   -1.5873   -0.0271    4.0249 C   0  0  0  0  0  4           0  0  0
   -0.5412    0.0000    1.3973 C   0  0  0  0  0  4           0  0  0
   -2.6602    1.0267    7.5064 C   0  0  0  0  0  4           0  0  0
   -2.6868   -1.2318    5.8798 C   0  0  0  0  0  4           0  0  0
   -2.1086    0.8402    3.0535 C   0  0  0  0  0  4           0  0  0
   -0.5377   -0.8833    3.6614 C   0  0  0  0  0  4           0  0  0
   -1.5932    0.8520    1.7543 C   0  0  0  0  0  4           0  0  0
   -0.0224   -0.8716    2.3622 C   0  0  0  0  0  4           0  0  0
   -3.2102   -0.1636    7.9791 C   0  0  0  0  0  4           0  0  0
   -3.2223   -1.2927    7.1673 C   0  0  0  0  0  4           0  0  0
    1.7712   -2.5125   -0.0484 C   0  0  0  0  0  4           0  0  0
    0.0000    0.0000    0.0000 C   0  0  0  0  0  4           0  0  0
    1.7871    2.5213    0.0137 C   0  0  0  0  0  4           0  0  0
    1.6188    3.0391    1.4377 C   0  0  0  0  0  4           0  0  0
    1.1235    4.4834    1.5260 C   0  0  0  0  0  4           0  0  0
   -0.2337    4.6838    0.8679 C   0  0  0  0  0  4           0  0  0
  1  9  1  0     0  0
  2 25  1  0     0  0
  3  4  2  0     0  0
  3  5  1  0     0  0
  4  6  1  0     0  0
  5 10  1  0     0  0
  6 10  2  0     0  0
  7 11  1  0     0  0
  7 12  1  0     0  0
  7 26  1  0     0  0
  8  9  1  0     0  0
  8 11  2  0     0  0
  9 12  2  0     0  0
 10 13  1  0     0  0
 11 27  1  0     0  0
 12 25  1  0     0  0
 13 14  1  0     0  0
 13 17  2  0     0  0
 14 15  1  0     0  0
 14 18  2  0     0  0
 15 19  2  0     0  0
 15 20  1  0     0  0
 16 21  2  0     0  0
 16 22  1  0     0  0
 16 26  1  0     0  0
 17 23  1  0     0  0
 18 24  1  0     0  0
 19 21  1  0     0  0
 20 22  2  0     0  0
 23 24  2  0     0  0
 27 28  1  0     0  0
 28 29  1  0     0  0
 29 30  1  0     0  0
M  END
> <standard_type>
pIC50

> <# Confs.>
25

> <canonical_smiles>
ClC(N=C1CCCC)=C(CO)N1CC2=CC=C(C3=CC=CC=C3C4=NN=NN4)C=C2

> <standard_relation>
=

> <Publication_ID>
nan

> <predicted_activity_value>
7.853871964321762

> <actual_activity_value>
7.721246399047171

> <Compound>
2

> <standard_units>
nM

> hash
1860001942647851610

$$$$
1
XXILIB    08252103513D 0   0.00000     0.00000

 30 33  0     1  0            999 V2000
    5.0018   -1.5001   -0.0754 Cl  0  0  0  0  0  1           0  0  0
    1.6088   -2.9014   -1.4055 O   0  0  0  0  0  2           0  0  0
   -0.0511    3.8132    5.0461 N   0  0  0  0  0  3           0  0  0
   -1.2215    4.4117    5.2204 N   0  0  0  0  0  3           0  0  0
   -0.2591    2.5359    5.3926 N   0  0  0  0  0  3           0  0  0
   -2.1686    3.5239    5.6752 N   0  0  0  0  0  3           0  0  0
    1.4523    0.0000    0.0000 N   0  0  0  0  0  3           0  0  0
    3.5402    0.7587   -0.0177 N   0  0  0  0  0  3           0  0  0
    3.5479   -0.6111   -0.0382 C   0  0  0  0  0  4           0  0  0
   -1.5601    2.3584    5.7778 C   0  0  0  0  0  4           0  0  0
    2.2705    1.1132    0.0000 C   0  0  0  0  0  4           0  0  0
    2.2622   -1.1181   -0.0299 C   0  0  0  0  0  4           0  0  0
   -2.1134    1.0997    6.2146 C   0  0  0  0  0  4           0  0  0
   -2.1258   -0.0409    5.3794 C   0  0  0  0  0  4           0  0  0
   -1.5873   -0.0271    4.0249 C   0  0  0  0  0  4           0  0  0
   -0.5412    0.0000    1.3973 C   0  0  0  0  0  4           0  0  0
   -2.6602    1.0267    7.5064 C   0  0  0  0  0  4           0  0  0
   -2.6868   -1.2318    5.8798 C   0  0  0  0  0  4           0  0  0
   -2.1086    0.8402    3.0535 C   0  0  0  0  0  4           0  0  0
   -0.5377   -0.8833    3.6614 C   0  0  0  0  0  4           0  0  0
   -1.5932    0.8520    1.7543 C   0  0  0  0  0  4           0  0  0
   -0.0224   -0.8716    2.3622 C   0  0  0  0  0  4           0  0  0
   -3.2102   -0.1636    7.9791 C   0  0  0  0  0  4           0  0  0
   -3.2223   -1.2927    7.1673 C   0  0  0  0  0  4           0  0  0
    1.7712   -2.5125   -0.0484 C   0  0  0  0  0  4           0  0  0
    0.0000    0.0000    0.0000 C   0  0  0  0  0  4           0  0  0
    1.7871    2.5213    0.0137 C   0  0  0  0  0  4           0  0  0
    2.5640    3.3678    1.0157 C   0  0  0  0  0  4           0  0  0
    2.1181    4.8292    1.0819 C   0  0  0  0  0  4           0  0  0
    2.9134    5.6445    2.0907 C   0  0  0  0  0  4           0  0  0
  1  9  1  0     0  0
  2 25  1  0     0  0
  3  4  2  0     0  0
  3  5  1  0     0  0
  4  6  1  0     0  0
  5 10  1  0     0  0
  6 10  2  0     0  0
  7 11  1  0     0  0
  7 12  1  0     0  0
  7 26  1  0     0  0
  8  9  1  0     0  0
  8 11  2  0     0  0
  9 12  2  0     0  0
 10 13  1  0     0  0
 11 27  1  0     0  0
 12 25  1  0     0  0
 13 14  1  0     0  0
 13 17  2  0     0  0
 14 15  1  0     0  0
 14 18  2  0     0  0
 15 19  2  0     0  0
 15 20  1  0     0  0
 16 21  2  0     0  0
 16 22  1  0     0  0
 16 26  1  0     0  0
 17 23  1  0     0  0
 18 24  1  0     0  0
 19 21  1  0     0  0
 20 22  2  0     0  0
 23 24  2  0     0  0
 27 28  1  0     0  0
 28 29  1  0     0  0
 29 30  1  0     0  0
M  END
> <standard_type>
pIC50

> <# Confs.>
25

> <canonical_smiles>
ClC(N=C1CCCC)=C(CO)N1CC2=CC=C(C3=CC=CC=C3C4=NN=NN4)C=C2

> <standard_relation>
=

> <Publication_ID>
nan

> <predicted_activity_value>
7.853871964321762

> <actual_activity_value>
7.721246399047171

> <Compound>
2

> <standard_units>
nM

> hash
1860001942647851610

$$$$
1
XXILIB    08252103513D 0   0.00000     0.00000

 30 33  0     1  0            999 V2000
    5.0018   -1.5001   -0.0754 Cl  0  0  0  0  0  1           0  0  0
    1.6088   -2.9014   -1.4055 O   0  0  0  0  0  2           0  0  0
   -5.3152   -1.7373    2.8882 N   0  0  0  0  0  3           0  0  0
   -6.0743   -0.7057    3.2316 N   0  0  0  0  0  3           0  0  0
   -4.2849   -1.7108    3.7441 N   0  0  0  0  0  3           0  0  0
   -5.5326   -0.0256    4.2976 N   0  0  0  0  0  3           0  0  0
    1.4523   -0.0000   -0.0000 N   0  0  0  0  0  3           0  0  0
    3.5402    0.7587   -0.0177 N   0  0  0  0  0  3           0  0  0
    3.5479   -0.6111   -0.0382 C   0  0  0  0  0  4           0  0  0
   -4.4194   -0.6599    4.6103 C   0  0  0  0  0  4           0  0  0
    2.2705    1.1132    0.0000 C   0  0  0  0  0  4           0  0  0
    2.2622   -1.1181   -0.0299 C   0  0  0  0  0  4           0  0  0
   -3.4783   -0.3448    5.6572 C   0  0  0  0  0  4           0  0  0
   -2.1258   -0.0409    5.3794 C   0  0  0  0  0  4           0  0  0
   -1.5873   -0.0271    4.0249 C   0  0  0  0  0  4           0  0  0
   -0.5412    0.0000    1.3973 C   0  0  0  0  0  4           0  0  0
   -3.9341   -0.3551    6.9858 C   0  0  0  0  0  4           0  0  0
   -1.2698    0.2534    6.4583 C   0  0  0  0  0  4           0  0  0
   -2.1086    0.8402    3.0535 C   0  0  0  0  0  4           0  0  0
   -0.5377   -0.8833    3.6614 C   0  0  0  0  0  4           0  0  0
   -1.5932    0.8520    1.7543 C   0  0  0  0  0  4           0  0  0
   -0.0224   -0.8716    2.3622 C   0  0  0  0  0  4           0  0  0
   -3.0675   -0.0605    8.0369 C   0  0  0  0  0  4           0  0  0
   -1.7365    0.2450    7.7737 C   0  0  0  0  0  4           0  0  0
    1.7712   -2.5125   -0.0484 C   0  0  0  0  0  4           0  0  0
    0.0000    0.0000    0.0000 C   0  0  0  0  0  4           0  0  0
    1.7871    2.5213    0.0137 C   0  0  0  0  0  4           0  0  0
    1.5933    3.0579   -1.4000 C   0  0  0  0  0  4           0  0  0
    1.0965    4.5032   -1.4603 C   0  0  0  0  0  4           0  0  0
    0.9141    5.0064   -2.8845 C   0  0  0  0  0  4           0  0  0
  1  9  1  0     0  0
  2 25  1  0     0  0
  3  4  2  0     0  0
  3  5  1  0     0  0
  4  6  1  0     0  0
  5 10  1  0     0  0
  6 10  2  0     0  0
  7 11  1  0     0  0
  7 12  1  0     0  0
  7 26  1  0     0  0
  8  9  1  0     0  0
  8 11  2  0     0  0
  9 12  2  0     0  0
 10 13  1  0     0  0
 11 27  1  0     0  0
 12 25  1  0     0  0
 13 14  1  0     0  0
 13 17  2  0     0  0
 14 15  1  0     0  0
 14 18  2  0     0  0
 15 19  2  0     0  0
 15 20  1  0     0  0
 16 21  2  0     0  0
 16 22  1  0     0  0
 16 26  1  0     0  0
 17 23  1  0     0  0
 18 24  1  0     0  0
 19 21  1  0     0  0
 20 22  2  0     0  0
 23 24  2  0     0  0
 27 28  1  0     0  0
 28 29  1  0     0  0
 29 30  1  0     0  0
M  END
> <standard_type>
pIC50

> <# Confs.>
25

> <canonical_smiles>
ClC(N=C1CCCC)=C(CO)N1CC2=CC=C(C3=CC=CC=C3C4=NN=NN4)C=C2

> <standard_relation>
=

> <Publication_ID>
nan

> <predicted_activity_value>
7.853871964321762

> <actual_activity_value>
7.721246399047171

> <Compound>
2

> <standard_units>
nM

> hash
1860001942647851610

$$$$
1
XXILIB    08252103513D 0   0.00000     0.00000

 30 33  0     1  0            999 V2000
    5.0018   -1.5001   -0.0754 Cl  0  0  0  0  0  1           0  0  0
    1.6088   -2.9014   -1.4055 O   0  0  0  0  0  2           0  0  0
   -0.0511    3.8132    5.0461 N   0  0  0  0  0  3           0  0  0
   -1.2215    4.4117    5.2204 N   0  0  0  0  0  3           0  0  0
   -0.2591    2.5359    5.3926 N   0  0  0  0  0  3           0  0  0
   -2.1686    3.5239    5.6752 N   0  0  0  0  0  3           0  0  0
    1.4523   -0.0000   -0.0000 N   0  0  0  0  0  3           0  0  0
    3.5402    0.7587   -0.0177 N   0  0  0  0  0  3           0  0  0
    3.5479   -0.6111   -0.0382 C   0  0  0  0  0  4           0  0  0
   -1.5601    2.3584    5.7778 C   0  0  0  0  0  4           0  0  0
    2.2705    1.1132    0.0000 C   0  0  0  0  0  4           0  0  0
    2.2622   -1.1181   -0.0299 C   0  0  0  0  0  4           0  0  0
   -2.1134    1.0997    6.2146 C   0  0  0  0  0  4           0  0  0
   -2.1258   -0.0409    5.3794 C   0  0  0  0  0  4           0  0  0
   -1.5873   -0.0271    4.0249 C   0  0  0  0  0  4           0  0  0
   -0.5412    0.0000    1.3973 C   0  0  0  0  0  4           0  0  0
   -2.6602    1.0267    7.5064 C   0  0  0  0  0  4           0  0  0
   -2.6868   -1.2318    5.8798 C   0  0  0  0  0  4           0  0  0
   -2.1086    0.8402    3.0535 C   0  0  0  0  0  4           0  0  0
   -0.5377   -0.8833    3.6614 C   0  0  0  0  0  4           0  0  0
   -1.5932    0.8520    1.7543 C   0  0  0  0  0  4           0  0  0
   -0.0224   -0.8716    2.3622 C   0  0  0  0  0  4           0  0  0
   -3.2102   -0.1636    7.9791 C   0  0  0  0  0  4           0  0  0
   -3.2223   -1.2927    7.1673 C   0  0  0  0  0  4           0  0  0
    1.7712   -2.5125   -0.0484 C   0  0  0  0  0  4           0  0  0
    0.0000    0.0000    0.0000 C   0  0  0  0  0  4           0  0  0
    1.7871    2.5213    0.0137 C   0  0  0  0  0  4           0  0  0
    1.5933    3.0579   -1.4000 C   0  0  0  0  0  4           0  0  0
    2.8642    3.0590   -2.2508 C   0  0  0  0  0  4           0  0  0
    2.6353    3.6002   -3.6542 C   0  0  0  0  0  4           0  0  0
  1  9  1  0     0  0
  2 25  1  0     0  0
  3  4  2  0     0  0
  3  5  1  0     0  0
  4  6  1  0     0  0
  5 10  1  0     0  0
  6 10  2  0     0  0
  7 11  1  0     0  0
  7 12  1  0     0  0
  7 26  1  0     0  0
  8  9  1  0     0  0
  8 11  2  0     0  0
  9 12  2  0     0  0
 10 13  1  0     0  0
 11 27  1  0     0  0
 12 25  1  0     0  0
 13 14  1  0     0  0
 13 17  2  0     0  0
 14 15  1  0     0  0
 14 18  2  0     0  0
 15 19  2  0     0  0
 15 20  1  0     0  0
 16 21  2  0     0  0
 16 22  1  0     0  0
 16 26  1  0     0  0
 17 23  1  0     0  0
 18 24  1  0     0  0
 19 21  1  0     0  0
 20 22  2  0     0  0
 23 24  2  0     0  0
 27 28  1  0     0  0
 28 29  1  0     0  0
 29 30  1  0     0  0
M  END
> <standard_type>
pIC50

> <# Confs.>
25

> <canonical_smiles>
ClC(N=C1CCCC)=C(CO)N1CC2=CC=C(C3=CC=CC=C3C4=NN=NN4)C=C2

> <standard_relation>
=

> <Publication_ID>
nan

> <predicted_activity_value>
7.853871964321762

> <actual_activity_value>
7.721246399047171

> <Compound>
2

> <standard_units>
nM

> hash
1860001942647851610

$$$$
1
XXILIB    08252103513D 0   0.00000     0.00000

 30 33  0     1  0            999 V2000
    5.0018   -1.5001   -0.0754 Cl  0  0  0  0  0  1           0  0  0
    1.6088   -2.9014   -1.4055 O   0  0  0  0  0  2           0  0  0
   -5.3152   -1.7373    2.8882 N   0  0  0  0  0  3           0  0  0
   -6.0743   -0.7057    3.2316 N   0  0  0  0  0  3           0  0  0
   -4.2849   -1.7108    3.7441 N   0  0  0  0  0  3           0  0  0
   -5.5326   -0.0256    4.2976 N   0  0  0  0  0  3           0  0  0
    1.4523   -0.0000   -0.0000 N   0  0  0  0  0  3           0  0  0
    3.5402    0.7587   -0.0177 N   0  0  0  0  0  3           0  0  0
    3.5479   -0.6111   -0.0382 C   0  0  0  0  0  4           0  0  0
   -4.4194   -0.6599    4.6103 C   0  0  0  0  0  4           0  0  0
    2.2705    1.1132    0.0000 C   0  0  0  0  0  4           0  0  0
    2.2622   -1.1181   -0.0299 C   0  0  0  0  0  4           0  0  0
   -3.4783   -0.3448    5.6572 C   0  0  0  0  0  4           0  0  0
   -2.1258   -0.0409    5.3794 C   0  0  0  0  0  4           0  0  0
   -1.5873   -0.0271    4.0249 C   0  0  0  0  0  4           0  0  0
   -0.5412    0.0000    1.3973 C   0  0  0  0  0  4           0  0  0
   -3.9341   -0.3551    6.9858 C   0  0  0  0  0  4           0  0  0
   -1.2698    0.2534    6.4583 C   0  0  0  0  0  4           0  0  0
   -2.1086    0.8402    3.0535 C   0  0  0  0  0  4           0  0  0
   -0.5377   -0.8833    3.6614 C   0  0  0  0  0  4           0  0  0
   -1.5932    0.8520    1.7543 C   0  0  0  0  0  4           0  0  0
   -0.0224   -0.8716    2.3622 C   0  0  0  0  0  4           0  0  0
   -3.0675   -0.0605    8.0369 C   0  0  0  0  0  4           0  0  0
   -1.7365    0.2450    7.7737 C   0  0  0  0  0  4           0  0  0
    1.7712   -2.5125   -0.0484 C   0  0  0  0  0  4           0  0  0
    0.0000    0.0000    0.0000 C   0  0  0  0  0  4           0  0  0
    1.7871    2.5213    0.0137 C   0  0  0  0  0  4           0  0  0
    1.6188    3.0391    1.4377 C   0  0  0  0  0  4           0  0  0
    1.1235    4.4834    1.5260 C   0  0  0  0  0  4           0  0  0
    0.9668    4.9677    2.9598 C   0  0  0  0  0  4           0  0  0
  1  9  1  0     0  0
  2 25  1  0     0  0
  3  4  2  0     0  0
  3  5  1  0     0  0
  4  6  1  0     0  0
  5 10  1  0     0  0
  6 10  2  0     0  0
  7 11  1  0     0  0
  7 12  1  0     0  0
  7 26  1  0     0  0
  8  9  1  0     0  0
  8 11  2  0     0  0
  9 12  2  0     0  0
 10 13  1  0     0  0
 11 27  1  0     0  0
 12 25  1  0     0  0
 13 14  1  0     0  0
 13 17  2  0     0  0
 14 15  1  0     0  0
 14 18  2  0     0  0
 15 19  2  0     0  0
 15 20  1  0     0  0
 16 21  2  0     0  0
 16 22  1  0     0  0
 16 26  1  0     0  0
 17 23  1  0     0  0
 18 24  1  0     0  0
 19 21  1  0     0  0
 20 22  2  0     0  0
 23 24  2  0     0  0
 27 28  1  0     0  0
 28 29  1  0     0  0
 29 30  1  0     0  0
M  END
> <standard_type>
pIC50

> <# Confs.>
25

> <canonical_smiles>
ClC(N=C1CCCC)=C(CO)N1CC2=CC=C(C3=CC=CC=C3C4=NN=NN4)C=C2

> <standard_relation>
=

> <Publication_ID>
nan

> <predicted_activity_value>
7.853871964321762

> <actual_activity_value>
7.721246399047171

> <Compound>
2

> <standard_units>
nM

> hash
1860001942647851610

$$$$
1
XXILIB    08252103513D 0   0.00000     0.00000

 30 33  0     1  0            999 V2000
    5.0018   -1.5001   -0.0754 Cl  0  0  0  0  0  1           0  0  0
    0.7122   -2.5912   -0.9927 O   0  0  0  0  0  2           0  0  0
    2.0595   -1.5386    5.7448 N   0  0  0  0  0  3           0  0  0
    1.5495   -2.6808    6.1847 N   0  0  0  0  0  3           0  0  0
    1.0508   -0.6594    5.8109 N   0  0  0  0  0  3           0  0  0
    0.2258   -2.5322    6.5281 N   0  0  0  0  0  3           0  0  0
    1.4523   -0.0000   -0.0000 N   0  0  0  0  0  3           0  0  0
    3.5402    0.7587   -0.0177 N   0  0  0  0  0  3           0  0  0
    3.5479   -0.6111   -0.0382 C   0  0  0  0  0  4           0  0  0
   -0.0750   -1.2699    6.2931 C   0  0  0  0  0  4           0  0  0
    2.2705    1.1132   -0.0000 C   0  0  0  0  0  4           0  0  0
    2.2622   -1.1181   -0.0299 C   0  0  0  0  0  4           0  0  0
   -1.3406   -0.6047    6.4852 C   0  0  0  0  0  4           0  0  0
   -2.0364    0.0012    5.4141 C   0  0  0  0  0  4           0  0  0
   -1.5275    0.0005    4.0481 C   0  0  0  0  0  4           0  0  0
   -0.5412    0.0000    1.3973 C   0  0  0  0  0  4           0  0  0
   -1.8769   -0.5587    7.7827 C   0  0  0  0  0  4           0  0  0
   -3.2654    0.6330    5.6853 C   0  0  0  0  0  4           0  0  0
   -1.2884   -1.2046    3.3712 C   0  0  0  0  0  4           0  0  0
   -1.2624    1.2052    3.3807 C   0  0  0  0  0  4           0  0  0
   -0.7987   -1.2048    2.0620 C   0  0  0  0  0  4           0  0  0
   -0.7726    1.2049    2.0716 C   0  0  0  0  0  4           0  0  0
   -3.0953    0.0729    8.0261 C   0  0  0  0  0  4           0  0  0
   -3.7901    0.6672    6.9782 C   0  0  0  0  0  4           0  0  0
    1.7712   -2.5125   -0.0484 C   0  0  0  0  0  4           0  0  0
    0.0000    0.0000    0.0000 C   0  0  0  0  0  4           0  0  0
    1.7871    2.5213    0.0137 C   0  0  0  0  0  4           0  0  0
    2.5459    3.3811   -0.9909 C   0  0  0  0  0  4           0  0  0
    2.4226    2.9092   -2.4404 C   0  0  0  0  0  4           0  0  0
    3.1912    3.7887   -3.4155 C   0  0  0  0  0  4           0  0  0
  1  9  1  0     0  0
  2 25  1  0     0  0
  3  4  2  0     0  0
  3  5  1  0     0  0
  4  6  1  0     0  0
  5 10  1  0     0  0
  6 10  2  0     0  0
  7 11  1  0     0  0
  7 12  1  0     0  0
  7 26  1  0     0  0
  8  9  1  0     0  0
  8 11  2  0     0  0
  9 12  2  0     0  0
 10 13  1  0     0  0
 11 27  1  0     0  0
 12 25  1  0     0  0
 13 14  1  0     0  0
 13 17  2  0     0  0
 14 15  1  0     0  0
 14 18  2  0     0  0
 15 19  2  0     0  0
 15 20  1  0     0  0
 16 21  2  0     0  0
 16 22  1  0     0  0
 16 26  1  0     0  0
 17 23  1  0     0  0
 18 24  1  0     0  0
 19 21  1  0     0  0
 20 22  2  0     0  0
 23 24  2  0     0  0
 27 28  1  0     0  0
 28 29  1  0     0  0
 29 30  1  0     0  0
M  END
> <standard_type>
pIC50

> <# Confs.>
25

> <canonical_smiles>
ClC(N=C1CCCC)=C(CO)N1CC2=CC=C(C3=CC=CC=C3C4=NN=NN4)C=C2

> <standard_relation>
=

> <Publication_ID>
nan

> <predicted_activity_value>
7.853871964321762

> <actual_activity_value>
7.721246399047171

> <Compound>
2

> <standard_units>
nM

> hash
1860001942647851610

$$$$
1
XXILIB    08252103513D 0   0.00000     0.00000

 30 33  0     1  0            999 V2000
    5.0018   -1.5001   -0.0754 Cl  0  0  0  0  0  1           0  0  0
    0.7122   -2.5912   -0.9927 O   0  0  0  0  0  2           0  0  0
    2.0595   -1.5386    5.7448 N   0  0  0  0  0  3           0  0  0
    1.5495   -2.6808    6.1847 N   0  0  0  0  0  3           0  0  0
    1.0508   -0.6594    5.8109 N   0  0  0  0  0  3           0  0  0
    0.2258   -2.5322    6.5281 N   0  0  0  0  0  3           0  0  0
    1.4523   -0.0000   -0.0000 N   0  0  0  0  0  3           0  0  0
    3.5402    0.7587   -0.0177 N   0  0  0  0  0  3           0  0  0
    3.5479   -0.6111   -0.0382 C   0  0  0  0  0  4           0  0  0
   -0.0750   -1.2699    6.2931 C   0  0  0  0  0  4           0  0  0
    2.2705    1.1132   -0.0000 C   0  0  0  0  0  4           0  0  0
    2.2622   -1.1181   -0.0299 C   0  0  0  0  0  4           0  0  0
   -1.3406   -0.6047    6.4852 C   0  0  0  0  0  4           0  0  0
   -2.0364    0.0012    5.4141 C   0  0  0  0  0  4           0  0  0
   -1.5275    0.0005    4.0481 C   0  0  0  0  0  4           0  0  0
   -0.5412    0.0000    1.3973 C   0  0  0  0  0  4           0  0  0
   -1.8769   -0.5587    7.7827 C   0  0  0  0  0  4           0  0  0
   -3.2654    0.6330    5.6853 C   0  0  0  0  0  4           0  0  0
   -1.2884   -1.2046    3.3712 C   0  0  0  0  0  4           0  0  0
   -1.2624    1.2052    3.3807 C   0  0  0  0  0  4           0  0  0
   -0.7987   -1.2048    2.0620 C   0  0  0  0  0  4           0  0  0
   -0.7726    1.2049    2.0716 C   0  0  0  0  0  4           0  0  0
   -3.0953    0.0729    8.0261 C   0  0  0  0  0  4           0  0  0
   -3.7901    0.6672    6.9782 C   0  0  0  0  0  4           0  0  0
    1.7712   -2.5125   -0.0484 C   0  0  0  0  0  4           0  0  0
    0.0000    0.0000    0.0000 C   0  0  0  0  0  4           0  0  0
    1.7871    2.5213    0.0137 C   0  0  0  0  0  4           0  0  0
    2.5459    3.3811   -0.9909 C   0  0  0  0  0  4           0  0  0
    2.0991    4.8432   -1.0297 C   0  0  0  0  0  4           0  0  0
    2.8762    5.6718   -2.0418 C   0  0  0  0  0  4           0  0  0
  1  9  1  0     0  0
  2 25  1  0     0  0
  3  4  2  0     0  0
  3  5  1  0     0  0
  4  6  1  0     0  0
  5 10  1  0     0  0
  6 10  2  0     0  0
  7 11  1  0     0  0
  7 12  1  0     0  0
  7 26  1  0     0  0
  8  9  1  0     0  0
  8 11  2  0     0  0
  9 12  2  0     0  0
 10 13  1  0     0  0
 11 27  1  0     0  0
 12 25  1  0     0  0
 13 14  1  0     0  0
 13 17  2  0     0  0
 14 15  1  0     0  0
 14 18  2  0     0  0
 15 19  2  0     0  0
 15 20  1  0     0  0
 16 21  2  0     0  0
 16 22  1  0     0  0
 16 26  1  0     0  0
 17 23  1  0     0  0
 18 24  1  0     0  0
 19 21  1  0     0  0
 20 22  2  0     0  0
 23 24  2  0     0  0
 27 28  1  0     0  0
 28 29  1  0     0  0
 29 30  1  0     0  0
M  END
> <standard_type>
pIC50

> <# Confs.>
25

> <canonical_smiles>
ClC(N=C1CCCC)=C(CO)N1CC2=CC=C(C3=CC=CC=C3C4=NN=NN4)C=C2

> <standard_relation>
=

> <Publication_ID>
nan

> <predicted_activity_value>
7.853871964321762

> <actual_activity_value>
7.721246399047171

> <Compound>
2

> <standard_units>
nM

> hash
1860001942647851610

$$$$
1
XXILIB    08252103513D 0   0.00000     0.00000

 30 33  0     1  0            999 V2000
    5.0018    1.5001    0.0754 Cl  0  0  0  0  0  1           0  0  0
    1.6088    2.9014    1.4055 O   0  0  0  0  0  2           0  0  0
   -5.5648    0.7490    2.9119 N   0  0  0  0  0  3           0  0  0
   -6.0691   -0.3954    3.3528 N   0  0  0  0  0  3           0  0  0
   -4.5396    1.0158    3.7321 N   0  0  0  0  0  3           0  0  0
   -5.3721   -0.8551    4.4460 N   0  0  0  0  0  3           0  0  0
    1.4523    0.0000    0.0000 N   0  0  0  0  0  3           0  0  0
    3.5402   -0.7587    0.0177 N   0  0  0  0  0  3           0  0  0
    3.5479    0.6111    0.0382 C   0  0  0  0  0  4           0  0  0
   -4.4209    0.0297    4.6735 C   0  0  0  0  0  4           0  0  0
    2.2705   -1.1132    0.0000 C   0  0  0  0  0  4           0  0  0
    2.2622    1.1181    0.0299 C   0  0  0  0  0  4           0  0  0
   -3.4185    0.0136    5.7109 C   0  0  0  0  0  4           0  0  0
   -2.0364    0.0012    5.4141 C   0  0  0  0  0  4           0  0  0
   -1.5275    0.0005    4.0481 C   0  0  0  0  0  4           0  0  0
   -0.5412   -0.0000    1.3973 C   0  0  0  0  0  4           0  0  0
   -3.8468   -0.0002    7.0486 C   0  0  0  0  0  4           0  0  0
   -1.1213   -0.0169    6.4844 C   0  0  0  0  0  4           0  0  0
   -1.2884   -1.2046    3.3712 C   0  0  0  0  0  4           0  0  0
   -1.2624    1.2052    3.3807 C   0  0  0  0  0  4           0  0  0
   -0.7987   -1.2048    2.0620 C   0  0  0  0  0  4           0  0  0
   -0.7726    1.2049    2.0716 C   0  0  0  0  0  4           0  0  0
   -2.9216   -0.0183    8.0909 C   0  0  0  0  0  4           0  0  0
   -1.5597   -0.0252    7.8095 C   0  0  0  0  0  4           0  0  0
    1.7712    2.5125    0.0484 C   0  0  0  0  0  4           0  0  0
    0.0000    0.0000   -0.0000 C   0  0  0  0  0  4           0  0  0
    1.7871   -2.5213   -0.0137 C   0  0  0  0  0  4           0  0  0
    2.5640   -3.3678   -1.0157 C   0  0  0  0  0  4           0  0  0
    2.1181   -4.8292   -1.0819 C   0  0  0  0  0  4           0  0  0
    2.9134   -5.6445   -2.0907 C   0  0  0  0  0  4           0  0  0
  1  9  1  0     0  0
  2 25  1  0     0  0
  3  4  2  0     0  0
  3  5  1  0     0  0
  4  6  1  0     0  0
  5 10  1  0     0  0
  6 10  2  0     0  0
  7 11  1  0     0  0
  7 12  1  0     0  0
  7 26  1  0     0  0
  8  9  1  0     0  0
  8 11  2  0     0  0
  9 12  2  0     0  0
 10 13  1  0     0  0
 11 27  1  0     0  0
 12 25  1  0     0  0
 13 14  1  0     0  0
 13 17  2  0     0  0
 14 15  1  0     0  0
 14 18  2  0     0  0
 15 19  2  0     0  0
 15 20  1  0     0  0
 16 21  2  0     0  0
 16 22  1  0     0  0
 16 26  1  0     0  0
 17 23  1  0     0  0
 18 24  1  0     0  0
 19 21  1  0     0  0
 20 22  2  0     0  0
 23 24  2  0     0  0
 27 28  1  0     0  0
 28 29  1  0     0  0
 29 30  1  0     0  0
M  END
> <standard_type>
pIC50

> <# Confs.>
25

> <canonical_smiles>
ClC(N=C1CCCC)=C(CO)N1CC2=CC=C(C3=CC=CC=C3C4=NN=NN4)C=C2

> <standard_relation>
=

> <Publication_ID>
nan

> <predicted_activity_value>
7.853871964321762

> <actual_activity_value>
7.721246399047171

> <Compound>
2

> <standard_units>
nM

> hash
1860001942647851610

$$$$
1
XXILIB    08252103513D 0   0.00000     0.00000

 30 33  0     1  0            999 V2000
    5.0018    1.5001    0.0754 Cl  0  0  0  0  0  1           0  0  0
    1.6088    2.9014    1.4055 O   0  0  0  0  0  2           0  0  0
    2.0595   -1.5386    5.7448 N   0  0  0  0  0  3           0  0  0
    1.5495   -2.6808    6.1847 N   0  0  0  0  0  3           0  0  0
    1.0508   -0.6594    5.8109 N   0  0  0  0  0  3           0  0  0
    0.2258   -2.5322    6.5281 N   0  0  0  0  0  3           0  0  0
    1.4523    0.0000    0.0000 N   0  0  0  0  0  3           0  0  0
    3.5402   -0.7587    0.0177 N   0  0  0  0  0  3           0  0  0
    3.5479    0.6111    0.0382 C   0  0  0  0  0  4           0  0  0
   -0.0750   -1.2699    6.2931 C   0  0  0  0  0  4           0  0  0
    2.2705   -1.1132    0.0000 C   0  0  0  0  0  4           0  0  0
    2.2622    1.1181    0.0299 C   0  0  0  0  0  4           0  0  0
   -1.3406   -0.6047    6.4852 C   0  0  0  0  0  4           0  0  0
   -2.0364    0.0012    5.4141 C   0  0  0  0  0  4           0  0  0
   -1.5275    0.0005    4.0481 C   0  0  0  0  0  4           0  0  0
   -0.5412    0.0000    1.3973 C   0  0  0  0  0  4           0  0  0
   -1.8769   -0.5587    7.7827 C   0  0  0  0  0  4           0  0  0
   -3.2654    0.6330    5.6853 C   0  0  0  0  0  4           0  0  0
   -1.2884   -1.2046    3.3712 C   0  0  0  0  0  4           0  0  0
   -1.2624    1.2052    3.3807 C   0  0  0  0  0  4           0  0  0
   -0.7987   -1.2048    2.0620 C   0  0  0  0  0  4           0  0  0
   -0.7726    1.2049    2.0716 C   0  0  0  0  0  4           0  0  0
   -3.0953    0.0729    8.0261 C   0  0  0  0  0  4           0  0  0
   -3.7901    0.6672    6.9782 C   0  0  0  0  0  4           0  0  0
    1.7712    2.5125    0.0484 C   0  0  0  0  0  4           0  0  0
    0.0000    0.0000    0.0000 C   0  0  0  0  0  4           0  0  0
    1.7871   -2.5213   -0.0137 C   0  0  0  0  0  4           0  0  0
    2.5459   -3.3811    0.9909 C   0  0  0  0  0  4           0  0  0
    2.0991   -4.8432    1.0297 C   0  0  0  0  0  4           0  0  0
    2.8762   -5.6718    2.0418 C   0  0  0  0  0  4           0  0  0
  1  9  1  0     0  0
  2 25  1  0     0  0
  3  4  2  0     0  0
  3  5  1  0     0  0
  4  6  1  0     0  0
  5 10  1  0     0  0
  6 10  2  0     0  0
  7 11  1  0     0  0
  7 12  1  0     0  0
  7 26  1  0     0  0
  8  9  1  0     0  0
  8 11  2  0     0  0
  9 12  2  0     0  0
 10 13  1  0     0  0
 11 27  1  0     0  0
 12 25  1  0     0  0
 13 14  1  0     0  0
 13 17  2  0     0  0
 14 15  1  0     0  0
 14 18  2  0     0  0
 15 19  2  0     0  0
 15 20  1  0     0  0
 16 21  2  0     0  0
 16 22  1  0     0  0
 16 26  1  0     0  0
 17 23  1  0     0  0
 18 24  1  0     0  0
 19 21  1  0     0  0
 20 22  2  0     0  0
 23 24  2  0     0  0
 27 28  1  0     0  0
 28 29  1  0     0  0
 29 30  1  0     0  0
M  END
> <standard_type>
pIC50

> <# Confs.>
25

> <canonical_smiles>
ClC(N=C1CCCC)=C(CO)N1CC2=CC=C(C3=CC=CC=C3C4=NN=NN4)C=C2

> <standard_relation>
=

> <Publication_ID>
nan

> <predicted_activity_value>
7.853871964321762

> <actual_activity_value>
7.721246399047171

> <Compound>
2

> <standard_units>
nM

> hash
1860001942647851610

$$$$
1
XXILIB    08252103513D 0   0.00000     0.00000

 30 33  0     1  0            999 V2000
    5.0018   -1.5001   -0.0754 Cl  0  0  0  0  0  1           0  0  0
    1.6088   -2.9014   -1.4055 O   0  0  0  0  0  2           0  0  0
   -5.3152   -1.7373    2.8882 N   0  0  0  0  0  3           0  0  0
   -6.0743   -0.7057    3.2316 N   0  0  0  0  0  3           0  0  0
   -4.2849   -1.7108    3.7441 N   0  0  0  0  0  3           0  0  0
   -5.5326   -0.0256    4.2976 N   0  0  0  0  0  3           0  0  0
    1.4523   -0.0000   -0.0000 N   0  0  0  0  0  3           0  0  0
    3.5402    0.7587   -0.0177 N   0  0  0  0  0  3           0  0  0
    3.5479   -0.6111   -0.0382 C   0  0  0  0  0  4           0  0  0
   -4.4194   -0.6599    4.6103 C   0  0  0  0  0  4           0  0  0
    2.2705    1.1132    0.0000 C   0  0  0  0  0  4           0  0  0
    2.2622   -1.1181   -0.0299 C   0  0  0  0  0  4           0  0  0
   -3.4783   -0.3448    5.6572 C   0  0  0  0  0  4           0  0  0
   -2.1258   -0.0409    5.3794 C   0  0  0  0  0  4           0  0  0
   -1.5873   -0.0271    4.0249 C   0  0  0  0  0  4           0  0  0
   -0.5412    0.0000    1.3973 C   0  0  0  0  0  4           0  0  0
   -3.9341   -0.3551    6.9858 C   0  0  0  0  0  4           0  0  0
   -1.2698    0.2534    6.4583 C   0  0  0  0  0  4           0  0  0
   -2.1086    0.8402    3.0535 C   0  0  0  0  0  4           0  0  0
   -0.5377   -0.8833    3.6614 C   0  0  0  0  0  4           0  0  0
   -1.5932    0.8520    1.7543 C   0  0  0  0  0  4           0  0  0
   -0.0224   -0.8716    2.3622 C   0  0  0  0  0  4           0  0  0
   -3.0675   -0.0605    8.0369 C   0  0  0  0  0  4           0  0  0
   -1.7365    0.2450    7.7737 C   0  0  0  0  0  4           0  0  0
    1.7712   -2.5125   -0.0484 C   0  0  0  0  0  4           0  0  0
    0.0000    0.0000    0.0000 C   0  0  0  0  0  4           0  0  0
    1.7871    2.5213    0.0137 C   0  0  0  0  0  4           0  0  0
    1.6188    3.0391    1.4377 C   0  0  0  0  0  4           0  0  0
    2.9049    3.0291    2.2653 C   0  0  0  0  0  4           0  0  0
    2.7014    3.5516    3.6797 C   0  0  0  0  0  4           0  0  0
  1  9  1  0     0  0
  2 25  1  0     0  0
  3  4  2  0     0  0
  3  5  1  0     0  0
  4  6  1  0     0  0
  5 10  1  0     0  0
  6 10  2  0     0  0
  7 11  1  0     0  0
  7 12  1  0     0  0
  7 26  1  0     0  0
  8  9  1  0     0  0
  8 11  2  0     0  0
  9 12  2  0     0  0
 10 13  1  0     0  0
 11 27  1  0     0  0
 12 25  1  0     0  0
 13 14  1  0     0  0
 13 17  2  0     0  0
 14 15  1  0     0  0
 14 18  2  0     0  0
 15 19  2  0     0  0
 15 20  1  0     0  0
 16 21  2  0     0  0
 16 22  1  0     0  0
 16 26  1  0     0  0
 17 23  1  0     0  0
 18 24  1  0     0  0
 19 21  1  0     0  0
 20 22  2  0     0  0
 23 24  2  0     0  0
 27 28  1  0     0  0
 28 29  1  0     0  0
 29 30  1  0     0  0
M  END
> <standard_type>
pIC50

> <# Confs.>
25

> <canonical_smiles>
ClC(N=C1CCCC)=C(CO)N1CC2=CC=C(C3=CC=CC=C3C4=NN=NN4)C=C2

> <standard_relation>
=

> <Publication_ID>
nan

> <predicted_activity_value>
7.853871964321762

> <actual_activity_value>
7.721246399047171

> <Compound>
2

> <standard_units>
nM

> hash
1860001942647851610

$$$$
1
XXILIB    08252103513D 0   0.00000     0.00000

 30 33  0     1  0            999 V2000
    5.0018   -1.5001   -0.0754 Cl  0  0  0  0  0  1           0  0  0
    1.6088   -2.9014   -1.4055 O   0  0  0  0  0  2           0  0  0
   -3.2863    3.9132    3.6741 N   0  0  0  0  0  3           0  0  0
   -2.5390    4.4970    4.6010 N   0  0  0  0  0  3           0  0  0
   -3.4154    2.6433    4.0809 N   0  0  0  0  0  3           0  0  0
   -2.1932    3.6068    5.5911 N   0  0  0  0  0  3           0  0  0
    1.4523   -0.0000   -0.0000 N   0  0  0  0  0  3           0  0  0
    3.5402    0.7587   -0.0177 N   0  0  0  0  0  3           0  0  0
    3.5479   -0.6111   -0.0382 C   0  0  0  0  0  4           0  0  0
   -2.7447    2.4558    5.2590 C   0  0  0  0  0  4           0  0  0
    2.2705    1.1132   -0.0000 C   0  0  0  0  0  4           0  0  0
    2.2622   -1.1181   -0.0299 C   0  0  0  0  0  4           0  0  0
   -2.6808    1.2000    5.9661 C   0  0  0  0  0  4           0  0  0
   -2.1274    0.0392    5.3788 C   0  0  0  0  0  4           0  0  0
   -1.5880    0.0263    4.0246 C   0  0  0  0  0  4           0  0  0
   -0.5412    0.0000    1.3973 C   0  0  0  0  0  4           0  0  0
   -3.1973    1.1452    7.2712 C   0  0  0  0  0  4           0  0  0
   -2.1046   -1.1486    6.1350 C   0  0  0  0  0  4           0  0  0
   -0.5201    0.8633    3.6688 C   0  0  0  0  0  4           0  0  0
   -2.1271   -0.8211    3.0458 C   0  0  0  0  0  4           0  0  0
   -0.0043    0.8520    2.3697 C   0  0  0  0  0  4           0  0  0
   -1.6113   -0.8323    1.7468 C   0  0  0  0  0  4           0  0  0
   -3.1636   -0.0426    7.9997 C   0  0  0  0  0  4           0  0  0
   -2.6164   -1.1886    7.4329 C   0  0  0  0  0  4           0  0  0
    1.7712   -2.5125   -0.0484 C   0  0  0  0  0  4           0  0  0
    0.0000    0.0000   -0.0000 C   0  0  0  0  0  4           0  0  0
    1.7871    2.5213    0.0137 C   0  0  0  0  0  4           0  0  0
    2.5459    3.3811   -0.9909 C   0  0  0  0  0  4           0  0  0
    2.4226    2.9092   -2.4404 C   0  0  0  0  0  4           0  0  0
    3.1912    3.7887   -3.4155 C   0  0  0  0  0  4           0  0  0
  1  9  1  0     0  0
  2 25  1  0     0  0
  3  4  2  0     0  0
  3  5  1  0     0  0
  4  6  1  0     0  0
  5 10  1  0     0  0
  6 10  2  0     0  0
  7 11  1  0     0  0
  7 12  1  0     0  0
  7 26  1  0     0  0
  8  9  1  0     0  0
  8 11  2  0     0  0
  9 12  2  0     0  0
 10 13  1  0     0  0
 11 27  1  0     0  0
 12 25  1  0     0  0
 13 14  1  0     0  0
 13 17  2  0     0  0
 14 15  1  0     0  0
 14 18  2  0     0  0
 15 19  2  0     0  0
 15 20  1  0     0  0
 16 21  2  0     0  0
 16 22  1  0     0  0
 16 26  1  0     0  0
 17 23  1  0     0  0
 18 24  1  0     0  0
 19 21  1  0     0  0
 20 22  2  0     0  0
 23 24  2  0     0  0
 27 28  1  0     0  0
 28 29  1  0     0  0
 29 30  1  0     0  0
M  END
> <standard_type>
pIC50

> <# Confs.>
25

> <canonical_smiles>
ClC(N=C1CCCC)=C(CO)N1CC2=CC=C(C3=CC=CC=C3C4=NN=NN4)C=C2

> <standard_relation>
=

> <Publication_ID>
nan

> <predicted_activity_value>
7.853871964321762

> <actual_activity_value>
7.721246399047171

> <Compound>
2

> <standard_units>
nM

> hash
1860001942647851610

$$$$
1
XXILIB    08252103513D 0   0.00000     0.00000

 30 33  0     1  0            999 V2000
    5.0018    1.5001    0.0754 Cl  0  0  0  0  0  1           0  0  0
    1.6088    2.9014    1.4055 O   0  0  0  0  0  2           0  0  0
   -5.5648    0.7490    2.9119 N   0  0  0  0  0  3           0  0  0
   -6.0691   -0.3954    3.3528 N   0  0  0  0  0  3           0  0  0
   -4.5396    1.0158    3.7321 N   0  0  0  0  0  3           0  0  0
   -5.3721   -0.8551    4.4460 N   0  0  0  0  0  3           0  0  0
    1.4523    0.0000    0.0000 N   0  0  0  0  0  3           0  0  0
    3.5402   -0.7587    0.0177 N   0  0  0  0  0  3           0  0  0
    3.5479    0.6111    0.0382 C   0  0  0  0  0  4           0  0  0
   -4.4209    0.0297    4.6735 C   0  0  0  0  0  4           0  0  0
    2.2705   -1.1132    0.0000 C   0  0  0  0  0  4           0  0  0
    2.2622    1.1181    0.0299 C   0  0  0  0  0  4           0  0  0
   -3.4185    0.0136    5.7109 C   0  0  0  0  0  4           0  0  0
   -2.0364    0.0012    5.4141 C   0  0  0  0  0  4           0  0  0
   -1.5275    0.0005    4.0481 C   0  0  0  0  0  4           0  0  0
   -0.5412   -0.0000    1.3973 C   0  0  0  0  0  4           0  0  0
   -3.8468   -0.0002    7.0486 C   0  0  0  0  0  4           0  0  0
   -1.1213   -0.0169    6.4844 C   0  0  0  0  0  4           0  0  0
   -1.2884   -1.2046    3.3712 C   0  0  0  0  0  4           0  0  0
   -1.2624    1.2052    3.3807 C   0  0  0  0  0  4           0  0  0
   -0.7987   -1.2048    2.0620 C   0  0  0  0  0  4           0  0  0
   -0.7726    1.2049    2.0716 C   0  0  0  0  0  4           0  0  0
   -2.9216   -0.0183    8.0909 C   0  0  0  0  0  4           0  0  0
   -1.5597   -0.0252    7.8095 C   0  0  0  0  0  4           0  0  0
    1.7712    2.5125    0.0484 C   0  0  0  0  0  4           0  0  0
    0.0000    0.0000   -0.0000 C   0  0  0  0  0  4           0  0  0
    1.7871   -2.5213   -0.0137 C   0  0  0  0  0  4           0  0  0
    2.5640   -3.3678   -1.0157 C   0  0  0  0  0  4           0  0  0
    2.4668   -2.8768   -2.4609 C   0  0  0  0  0  4           0  0  0
    3.2529   -3.7434   -3.4334 C   0  0  0  0  0  4           0  0  0
  1  9  1  0     0  0
  2 25  1  0     0  0
  3  4  2  0     0  0
  3  5  1  0     0  0
  4  6  1  0     0  0
  5 10  1  0     0  0
  6 10  2  0     0  0
  7 11  1  0     0  0
  7 12  1  0     0  0
  7 26  1  0     0  0
  8  9  1  0     0  0
  8 11  2  0     0  0
  9 12  2  0     0  0
 10 13  1  0     0  0
 11 27  1  0     0  0
 12 25  1  0     0  0
 13 14  1  0     0  0
 13 17  2  0     0  0
 14 15  1  0     0  0
 14 18  2  0     0  0
 15 19  2  0     0  0
 15 20  1  0     0  0
 16 21  2  0     0  0
 16 22  1  0     0  0
 16 26  1  0     0  0
 17 23  1  0     0  0
 18 24  1  0     0  0
 19 21  1  0     0  0
 20 22  2  0     0  0
 23 24  2  0     0  0
 27 28  1  0     0  0
 28 29  1  0     0  0
 29 30  1  0     0  0
M  END
> <standard_type>
pIC50

> <# Confs.>
25

> <canonical_smiles>
ClC(N=C1CCCC)=C(CO)N1CC2=CC=C(C3=CC=CC=C3C4=NN=NN4)C=C2

> <standard_relation>
=

> <Publication_ID>
nan

> <predicted_activity_value>
7.853871964321762

> <actual_activity_value>
7.721246399047171

> <Compound>
2

> <standard_units>
nM

> hash
1860001942647851610

$$$$
1
XXILIB    08252103513D 0   0.00000     0.00000

 30 33  0     1  0            999 V2000
    5.0018   -1.5001   -0.0754 Cl  0  0  0  0  0  1           0  0  0
    0.7122   -2.5912   -0.9927 O   0  0  0  0  0  2           0  0  0
   -5.3910   -1.4412    2.9777 N   0  0  0  0  0  3           0  0  0
   -5.3189   -2.5916    3.6333 N   0  0  0  0  0  3           0  0  0
   -4.6472   -0.5866    3.6928 N   0  0  0  0  0  3           0  0  0
   -4.5362   -2.4722    4.7581 N   0  0  0  0  0  3           0  0  0
    1.4523   -0.0000   -0.0000 N   0  0  0  0  0  3           0  0  0
    3.5402    0.7587   -0.0177 N   0  0  0  0  0  3           0  0  0
    3.5479   -0.6111   -0.0382 C   0  0  0  0  0  4           0  0  0
   -4.1215   -1.2207    4.7857 C   0  0  0  0  0  4           0  0  0
    2.2705    1.1132   -0.0000 C   0  0  0  0  0  4           0  0  0
    2.2622   -1.1181   -0.0299 C   0  0  0  0  0  4           0  0  0
   -3.2747   -0.5838    5.7647 C   0  0  0  0  0  4           0  0  0
   -2.0364    0.0012    5.4141 C   0  0  0  0  0  4           0  0  0
   -1.5275    0.0005    4.0481 C   0  0  0  0  0  4           0  0  0
   -0.5412    0.0000    1.3973 C   0  0  0  0  0  4           0  0  0
   -3.7044   -0.5629    7.1019 C   0  0  0  0  0  4           0  0  0
   -1.2671    0.6012    6.4297 C   0  0  0  0  0  4           0  0  0
   -1.2884   -1.2046    3.3712 C   0  0  0  0  0  4           0  0  0
   -1.2624    1.2052    3.3807 C   0  0  0  0  0  4           0  0  0
   -0.7987   -1.2048    2.0620 C   0  0  0  0  0  4           0  0  0
   -0.7726    1.2049    2.0716 C   0  0  0  0  0  4           0  0  0
   -2.9250    0.0369    8.0896 C   0  0  0  0  0  4           0  0  0
   -1.7078    0.6199    7.7539 C   0  0  0  0  0  4           0  0  0
    1.7712   -2.5125   -0.0484 C   0  0  0  0  0  4           0  0  0
    0.0000   -0.0000    0.0000 C   0  0  0  0  0  4           0  0  0
    1.7871    2.5213    0.0137 C   0  0  0  0  0  4           0  0  0
    2.5459    3.3811   -0.9909 C   0  0  0  0  0  4           0  0  0
    2.4226    2.9092   -2.4404 C   0  0  0  0  0  4           0  0  0
    3.1912    3.7887   -3.4155 C   0  0  0  0  0  4           0  0  0
  1  9  1  0     0  0
  2 25  1  0     0  0
  3  4  2  0     0  0
  3  5  1  0     0  0
  4  6  1  0     0  0
  5 10  1  0     0  0
  6 10  2  0     0  0
  7 11  1  0     0  0
  7 12  1  0     0  0
  7 26  1  0     0  0
  8  9  1  0     0  0
  8 11  2  0     0  0
  9 12  2  0     0  0
 10 13  1  0     0  0
 11 27  1  0     0  0
 12 25  1  0     0  0
 13 14  1  0     0  0
 13 17  2  0     0  0
 14 15  1  0     0  0
 14 18  2  0     0  0
 15 19  2  0     0  0
 15 20  1  0     0  0
 16 21  2  0     0  0
 16 22  1  0     0  0
 16 26  1  0     0  0
 17 23  1  0     0  0
 18 24  1  0     0  0
 19 21  1  0     0  0
 20 22  2  0     0  0
 23 24  2  0     0  0
 27 28  1  0     0  0
 28 29  1  0     0  0
 29 30  1  0     0  0
M  END
> <standard_type>
pIC50

> <# Confs.>
25

> <canonical_smiles>
ClC(N=C1CCCC)=C(CO)N1CC2=CC=C(C3=CC=CC=C3C4=NN=NN4)C=C2

> <standard_relation>
=

> <Publication_ID>
nan

> <predicted_activity_value>
7.853871964321762

> <actual_activity_value>
7.721246399047171

> <Compound>
2

> <standard_units>
nM

> hash
1860001942647851610

$$$$
1
XXILIB    08252103513D 0   0.00000     0.00000

 30 33  0     1  0            999 V2000
    5.0018   -1.5001   -0.0754 Cl  0  0  0  0  0  1           0  0  0
    1.6088   -2.9014   -1.4055 O   0  0  0  0  0  2           0  0  0
   -3.2863    3.9132    3.6741 N   0  0  0  0  0  3           0  0  0
   -2.5390    4.4970    4.6010 N   0  0  0  0  0  3           0  0  0
   -3.4154    2.6433    4.0809 N   0  0  0  0  0  3           0  0  0
   -2.1932    3.6068    5.5911 N   0  0  0  0  0  3           0  0  0
    1.4523   -0.0000   -0.0000 N   0  0  0  0  0  3           0  0  0
    3.5402    0.7587   -0.0177 N   0  0  0  0  0  3           0  0  0
    3.5479   -0.6111   -0.0382 C   0  0  0  0  0  4           0  0  0
   -2.7447    2.4558    5.2590 C   0  0  0  0  0  4           0  0  0
    2.2705    1.1132   -0.0000 C   0  0  0  0  0  4           0  0  0
    2.2622   -1.1181   -0.0299 C   0  0  0  0  0  4           0  0  0
   -2.6808    1.2000    5.9661 C   0  0  0  0  0  4           0  0  0
   -2.1274    0.0392    5.3788 C   0  0  0  0  0  4           0  0  0
   -1.5880    0.0263    4.0246 C   0  0  0  0  0  4           0  0  0
   -0.5412    0.0000    1.3973 C   0  0  0  0  0  4           0  0  0
   -3.1973    1.1452    7.2712 C   0  0  0  0  0  4           0  0  0
   -2.1046   -1.1486    6.1350 C   0  0  0  0  0  4           0  0  0
   -0.5201    0.8633    3.6688 C   0  0  0  0  0  4           0  0  0
   -2.1271   -0.8211    3.0458 C   0  0  0  0  0  4           0  0  0
   -0.0043    0.8520    2.3697 C   0  0  0  0  0  4           0  0  0
   -1.6113   -0.8323    1.7468 C   0  0  0  0  0  4           0  0  0
   -3.1636   -0.0426    7.9997 C   0  0  0  0  0  4           0  0  0
   -2.6164   -1.1886    7.4329 C   0  0  0  0  0  4           0  0  0
    1.7712   -2.5125   -0.0484 C   0  0  0  0  0  4           0  0  0
    0.0000    0.0000   -0.0000 C   0  0  0  0  0  4           0  0  0
    1.7871    2.5213    0.0137 C   0  0  0  0  0  4           0  0  0
    2.5459    3.3811   -0.9909 C   0  0  0  0  0  4           0  0  0
    2.0991    4.8432   -1.0297 C   0  0  0  0  0  4           0  0  0
    2.8762    5.6718   -2.0418 C   0  0  0  0  0  4           0  0  0
  1  9  1  0     0  0
  2 25  1  0     0  0
  3  4  2  0     0  0
  3  5  1  0     0  0
  4  6  1  0     0  0
  5 10  1  0     0  0
  6 10  2  0     0  0
  7 11  1  0     0  0
  7 12  1  0     0  0
  7 26  1  0     0  0
  8  9  1  0     0  0
  8 11  2  0     0  0
  9 12  2  0     0  0
 10 13  1  0     0  0
 11 27  1  0     0  0
 12 25  1  0     0  0
 13 14  1  0     0  0
 13 17  2  0     0  0
 14 15  1  0     0  0
 14 18  2  0     0  0
 15 19  2  0     0  0
 15 20  1  0     0  0
 16 21  2  0     0  0
 16 22  1  0     0  0
 16 26  1  0     0  0
 17 23  1  0     0  0
 18 24  1  0     0  0
 19 21  1  0     0  0
 20 22  2  0     0  0
 23 24  2  0     0  0
 27 28  1  0     0  0
 28 29  1  0     0  0
 29 30  1  0     0  0
M  END
> <standard_type>
pIC50

> <# Confs.>
25

> <canonical_smiles>
ClC(N=C1CCCC)=C(CO)N1CC2=CC=C(C3=CC=CC=C3C4=NN=NN4)C=C2

> <standard_relation>
=

> <Publication_ID>
nan

> <predicted_activity_value>
7.853871964321762

> <actual_activity_value>
7.721246399047171

> <Compound>
2

> <standard_units>
nM

> hash
1860001942647851610

$$$$
1
XXILIB    08252103513D 0   0.00000     0.00000

 30 33  0     1  0            999 V2000
    5.0018    1.5001    0.0754 Cl  0  0  0  0  0  1           0  0  0
    1.6088    2.9014    1.4055 O   0  0  0  0  0  2           0  0  0
   -5.3910   -1.4412    2.9777 N   0  0  0  0  0  3           0  0  0
   -5.3189   -2.5916    3.6333 N   0  0  0  0  0  3           0  0  0
   -4.6472   -0.5866    3.6928 N   0  0  0  0  0  3           0  0  0
   -4.5362   -2.4722    4.7581 N   0  0  0  0  0  3           0  0  0
    1.4523    0.0000    0.0000 N   0  0  0  0  0  3           0  0  0
    3.5402   -0.7587    0.0177 N   0  0  0  0  0  3           0  0  0
    3.5479    0.6111    0.0382 C   0  0  0  0  0  4           0  0  0
   -4.1215   -1.2207    4.7857 C   0  0  0  0  0  4           0  0  0
    2.2705   -1.1132    0.0000 C   0  0  0  0  0  4           0  0  0
    2.2622    1.1181    0.0299 C   0  0  0  0  0  4           0  0  0
   -3.2747   -0.5838    5.7647 C   0  0  0  0  0  4           0  0  0
   -2.0364    0.0012    5.4141 C   0  0  0  0  0  4           0  0  0
   -1.5275    0.0005    4.0481 C   0  0  0  0  0  4           0  0  0
   -0.5412    0.0000    1.3973 C   0  0  0  0  0  4           0  0  0
   -3.7044   -0.5629    7.1019 C   0  0  0  0  0  4           0  0  0
   -1.2671    0.6012    6.4297 C   0  0  0  0  0  4           0  0  0
   -1.2884   -1.2046    3.3712 C   0  0  0  0  0  4           0  0  0
   -1.2624    1.2052    3.3807 C   0  0  0  0  0  4           0  0  0
   -0.7987   -1.2048    2.0620 C   0  0  0  0  0  4           0  0  0
   -0.7726    1.2049    2.0716 C   0  0  0  0  0  4           0  0  0
   -2.9250    0.0369    8.0896 C   0  0  0  0  0  4           0  0  0
   -1.7078    0.6199    7.7539 C   0  0  0  0  0  4           0  0  0
    1.7712    2.5125    0.0484 C   0  0  0  0  0  4           0  0  0
    0.0000   -0.0000    0.0000 C   0  0  0  0  0  4           0  0  0
    1.7871   -2.5213   -0.0137 C   0  0  0  0  0  4           0  0  0
    2.5459   -3.3811    0.9909 C   0  0  0  0  0  4           0  0  0
    2.0991   -4.8432    1.0297 C   0  0  0  0  0  4           0  0  0
    2.8762   -5.6718    2.0418 C   0  0  0  0  0  4           0  0  0
  1  9  1  0     0  0
  2 25  1  0     0  0
  3  4  2  0     0  0
  3  5  1  0     0  0
  4  6  1  0     0  0
  5 10  1  0     0  0
  6 10  2  0     0  0
  7 11  1  0     0  0
  7 12  1  0     0  0
  7 26  1  0     0  0
  8  9  1  0     0  0
  8 11  2  0     0  0
  9 12  2  0     0  0
 10 13  1  0     0  0
 11 27  1  0     0  0
 12 25  1  0     0  0
 13 14  1  0     0  0
 13 17  2  0     0  0
 14 15  1  0     0  0
 14 18  2  0     0  0
 15 19  2  0     0  0
 15 20  1  0     0  0
 16 21  2  0     0  0
 16 22  1  0     0  0
 16 26  1  0     0  0
 17 23  1  0     0  0
 18 24  1  0     0  0
 19 21  1  0     0  0
 20 22  2  0     0  0
 23 24  2  0     0  0
 27 28  1  0     0  0
 28 29  1  0     0  0
 29 30  1  0     0  0
M  END
> <standard_type>
pIC50

> <# Confs.>
25

> <canonical_smiles>
ClC(N=C1CCCC)=C(CO)N1CC2=CC=C(C3=CC=CC=C3C4=NN=NN4)C=C2

> <standard_relation>
=

> <Publication_ID>
nan

> <predicted_activity_value>
7.853871964321762

> <actual_activity_value>
7.721246399047171

> <Compound>
2

> <standard_units>
nM

> hash
1860001942647851610

$$$$
1
XXILIB    08252103513D 0   0.00000     0.00000

 30 33  0     1  0            999 V2000
    5.0018   -1.5001   -0.0754 Cl  0  0  0  0  0  1           0  0  0
    1.6088   -2.9014   -1.4055 O   0  0  0  0  0  2           0  0  0
   -3.2863    3.9132    3.6741 N   0  0  0  0  0  3           0  0  0
   -2.5390    4.4970    4.6010 N   0  0  0  0  0  3           0  0  0
   -3.4154    2.6433    4.0809 N   0  0  0  0  0  3           0  0  0
   -2.1932    3.6068    5.5911 N   0  0  0  0  0  3           0  0  0
    1.4523    0.0000    0.0000 N   0  0  0  0  0  3           0  0  0
    3.5402    0.7587   -0.0177 N   0  0  0  0  0  3           0  0  0
    3.5479   -0.6111   -0.0382 C   0  0  0  0  0  4           0  0  0
   -2.7447    2.4558    5.2590 C   0  0  0  0  0  4           0  0  0
    2.2705    1.1132    0.0000 C   0  0  0  0  0  4           0  0  0
    2.2622   -1.1181   -0.0299 C   0  0  0  0  0  4           0  0  0
   -2.6808    1.2000    5.9661 C   0  0  0  0  0  4           0  0  0
   -2.1274    0.0392    5.3788 C   0  0  0  0  0  4           0  0  0
   -1.5880    0.0263    4.0246 C   0  0  0  0  0  4           0  0  0
   -0.5412    0.0000    1.3973 C   0  0  0  0  0  4           0  0  0
   -3.1973    1.1452    7.2712 C   0  0  0  0  0  4           0  0  0
   -2.1046   -1.1486    6.1350 C   0  0  0  0  0  4           0  0  0
   -0.5201    0.8633    3.6688 C   0  0  0  0  0  4           0  0  0
   -2.1271   -0.8211    3.0458 C   0  0  0  0  0  4           0  0  0
   -0.0043    0.8520    2.3697 C   0  0  0  0  0  4           0  0  0
   -1.6113   -0.8323    1.7468 C   0  0  0  0  0  4           0  0  0
   -3.1636   -0.0426    7.9997 C   0  0  0  0  0  4           0  0  0
   -2.6164   -1.1886    7.4329 C   0  0  0  0  0  4           0  0  0
    1.7712   -2.5125   -0.0484 C   0  0  0  0  0  4           0  0  0
    0.0000    0.0000   -0.0000 C   0  0  0  0  0  4           0  0  0
    1.7871    2.5213    0.0137 C   0  0  0  0  0  4           0  0  0
    2.5640    3.3678    1.0157 C   0  0  0  0  0  4           0  0  0
    2.1181    4.8292    1.0819 C   0  0  0  0  0  4           0  0  0
    2.9134    5.6445    2.0907 C   0  0  0  0  0  4           0  0  0
  1  9  1  0     0  0
  2 25  1  0     0  0
  3  4  2  0     0  0
  3  5  1  0     0  0
  4  6  1  0     0  0
  5 10  1  0     0  0
  6 10  2  0     0  0
  7 11  1  0     0  0
  7 12  1  0     0  0
  7 26  1  0     0  0
  8  9  1  0     0  0
  8 11  2  0     0  0
  9 12  2  0     0  0
 10 13  1  0     0  0
 11 27  1  0     0  0
 12 25  1  0     0  0
 13 14  1  0     0  0
 13 17  2  0     0  0
 14 15  1  0     0  0
 14 18  2  0     0  0
 15 19  2  0     0  0
 15 20  1  0     0  0
 16 21  2  0     0  0
 16 22  1  0     0  0
 16 26  1  0     0  0
 17 23  1  0     0  0
 18 24  1  0     0  0
 19 21  1  0     0  0
 20 22  2  0     0  0
 23 24  2  0     0  0
 27 28  1  0     0  0
 28 29  1  0     0  0
 29 30  1  0     0  0
M  END
> <standard_type>
pIC50

> <# Confs.>
25

> <canonical_smiles>
ClC(N=C1CCCC)=C(CO)N1CC2=CC=C(C3=CC=CC=C3C4=NN=NN4)C=C2

> <standard_relation>
=

> <Publication_ID>
nan

> <predicted_activity_value>
7.853871964321762

> <actual_activity_value>
7.721246399047171

> <Compound>
2

> <standard_units>
nM

> hash
1860001942647851610

$$$$
1
XXILIB    08252103513D 0   0.00000     0.00000

 30 33  0     1  0            999 V2000
    5.0018   -1.5001   -0.0754 Cl  0  0  0  0  0  1           0  0  0
    0.7122   -2.5912   -0.9927 O   0  0  0  0  0  2           0  0  0
   -5.3910   -1.4412    2.9777 N   0  0  0  0  0  3           0  0  0
   -5.3189   -2.5916    3.6333 N   0  0  0  0  0  3           0  0  0
   -4.6472   -0.5866    3.6928 N   0  0  0  0  0  3           0  0  0
   -4.5362   -2.4722    4.7581 N   0  0  0  0  0  3           0  0  0
    1.4523   -0.0000   -0.0000 N   0  0  0  0  0  3           0  0  0
    3.5402    0.7587   -0.0177 N   0  0  0  0  0  3           0  0  0
    3.5479   -0.6111   -0.0382 C   0  0  0  0  0  4           0  0  0
   -4.1215   -1.2207    4.7857 C   0  0  0  0  0  4           0  0  0
    2.2705    1.1132   -0.0000 C   0  0  0  0  0  4           0  0  0
    2.2622   -1.1181   -0.0299 C   0  0  0  0  0  4           0  0  0
   -3.2747   -0.5838    5.7647 C   0  0  0  0  0  4           0  0  0
   -2.0364    0.0012    5.4141 C   0  0  0  0  0  4           0  0  0
   -1.5275    0.0005    4.0481 C   0  0  0  0  0  4           0  0  0
   -0.5412    0.0000    1.3973 C   0  0  0  0  0  4           0  0  0
   -3.7044   -0.5629    7.1019 C   0  0  0  0  0  4           0  0  0
   -1.2671    0.6012    6.4297 C   0  0  0  0  0  4           0  0  0
   -1.2884   -1.2046    3.3712 C   0  0  0  0  0  4           0  0  0
   -1.2624    1.2052    3.3807 C   0  0  0  0  0  4           0  0  0
   -0.7987   -1.2048    2.0620 C   0  0  0  0  0  4           0  0  0
   -0.7726    1.2049    2.0716 C   0  0  0  0  0  4           0  0  0
   -2.9250    0.0369    8.0896 C   0  0  0  0  0  4           0  0  0
   -1.7078    0.6199    7.7539 C   0  0  0  0  0  4           0  0  0
    1.7712   -2.5125   -0.0484 C   0  0  0  0  0  4           0  0  0
    0.0000   -0.0000    0.0000 C   0  0  0  0  0  4           0  0  0
    1.7871    2.5213    0.0137 C   0  0  0  0  0  4           0  0  0
    2.5459    3.3811   -0.9909 C   0  0  0  0  0  4           0  0  0
    2.0991    4.8432   -1.0297 C   0  0  0  0  0  4           0  0  0
    2.8762    5.6718   -2.0418 C   0  0  0  0  0  4           0  0  0
  1  9  1  0     0  0
  2 25  1  0     0  0
  3  4  2  0     0  0
  3  5  1  0     0  0
  4  6  1  0     0  0
  5 10  1  0     0  0
  6 10  2  0     0  0
  7 11  1  0     0  0
  7 12  1  0     0  0
  7 26  1  0     0  0
  8  9  1  0     0  0
  8 11  2  0     0  0
  9 12  2  0     0  0
 10 13  1  0     0  0
 11 27  1  0     0  0
 12 25  1  0     0  0
 13 14  1  0     0  0
 13 17  2  0     0  0
 14 15  1  0     0  0
 14 18  2  0     0  0
 15 19  2  0     0  0
 15 20  1  0     0  0
 16 21  2  0     0  0
 16 22  1  0     0  0
 16 26  1  0     0  0
 17 23  1  0     0  0
 18 24  1  0     0  0
 19 21  1  0     0  0
 20 22  2  0     0  0
 23 24  2  0     0  0
 27 28  1  0     0  0
 28 29  1  0     0  0
 29 30  1  0     0  0
M  END
> <standard_type>
pIC50

> <# Confs.>
25

> <canonical_smiles>
ClC(N=C1CCCC)=C(CO)N1CC2=CC=C(C3=CC=CC=C3C4=NN=NN4)C=C2

> <standard_relation>
=

> <Publication_ID>
nan

> <predicted_activity_value>
7.853871964321762

> <actual_activity_value>
7.721246399047171

> <Compound>
2

> <standard_units>
nM

> hash
1860001942647851610

$$$$
1
XXILIB    08252103513D 0   0.00000     0.00000

 30 33  0     1  0            999 V2000
    5.0018   -1.5001   -0.0754 Cl  0  0  0  0  0  1           0  0  0
    1.6088   -2.9014   -1.4055 O   0  0  0  0  0  2           0  0  0
   -5.3152   -1.7373    2.8882 N   0  0  0  0  0  3           0  0  0
   -6.0743   -0.7057    3.2316 N   0  0  0  0  0  3           0  0  0
   -4.2849   -1.7108    3.7441 N   0  0  0  0  0  3           0  0  0
   -5.5326   -0.0256    4.2976 N   0  0  0  0  0  3           0  0  0
    1.4523   -0.0000   -0.0000 N   0  0  0  0  0  3           0  0  0
    3.5402    0.7587   -0.0177 N   0  0  0  0  0  3           0  0  0
    3.5479   -0.6111   -0.0382 C   0  0  0  0  0  4           0  0  0
   -4.4194   -0.6599    4.6103 C   0  0  0  0  0  4           0  0  0
    2.2705    1.1132    0.0000 C   0  0  0  0  0  4           0  0  0
    2.2622   -1.1181   -0.0299 C   0  0  0  0  0  4           0  0  0
   -3.4783   -0.3448    5.6572 C   0  0  0  0  0  4           0  0  0
   -2.1258   -0.0409    5.3794 C   0  0  0  0  0  4           0  0  0
   -1.5873   -0.0271    4.0249 C   0  0  0  0  0  4           0  0  0
   -0.5412    0.0000    1.3973 C   0  0  0  0  0  4           0  0  0
   -3.9341   -0.3551    6.9858 C   0  0  0  0  0  4           0  0  0
   -1.2698    0.2534    6.4583 C   0  0  0  0  0  4           0  0  0
   -2.1086    0.8402    3.0535 C   0  0  0  0  0  4           0  0  0
   -0.5377   -0.8833    3.6614 C   0  0  0  0  0  4           0  0  0
   -1.5932    0.8520    1.7543 C   0  0  0  0  0  4           0  0  0
   -0.0224   -0.8716    2.3622 C   0  0  0  0  0  4           0  0  0
   -3.0675   -0.0605    8.0369 C   0  0  0  0  0  4           0  0  0
   -1.7365    0.2450    7.7737 C   0  0  0  0  0  4           0  0  0
    1.7712   -2.5125   -0.0484 C   0  0  0  0  0  4           0  0  0
    0.0000    0.0000    0.0000 C   0  0  0  0  0  4           0  0  0
    1.7871    2.5213    0.0137 C   0  0  0  0  0  4           0  0  0
    1.5933    3.0579   -1.4000 C   0  0  0  0  0  4           0  0  0
    2.8642    3.0590   -2.2508 C   0  0  0  0  0  4           0  0  0
    2.6353    3.6002   -3.6542 C   0  0  0  0  0  4           0  0  0
  1  9  1  0     0  0
  2 25  1  0     0  0
  3  4  2  0     0  0
  3  5  1  0     0  0
  4  6  1  0     0  0
  5 10  1  0     0  0
  6 10  2  0     0  0
  7 11  1  0     0  0
  7 12  1  0     0  0
  7 26  1  0     0  0
  8  9  1  0     0  0
  8 11  2  0     0  0
  9 12  2  0     0  0
 10 13  1  0     0  0
 11 27  1  0     0  0
 12 25  1  0     0  0
 13 14  1  0     0  0
 13 17  2  0     0  0
 14 15  1  0     0  0
 14 18  2  0     0  0
 15 19  2  0     0  0
 15 20  1  0     0  0
 16 21  2  0     0  0
 16 22  1  0     0  0
 16 26  1  0     0  0
 17 23  1  0     0  0
 18 24  1  0     0  0
 19 21  1  0     0  0
 20 22  2  0     0  0
 23 24  2  0     0  0
 27 28  1  0     0  0
 28 29  1  0     0  0
 29 30  1  0     0  0
M  END
> <standard_type>
pIC50

> <# Confs.>
25

> <canonical_smiles>
ClC(N=C1CCCC)=C(CO)N1CC2=CC=C(C3=CC=CC=C3C4=NN=NN4)C=C2

> <standard_relation>
=

> <Publication_ID>
nan

> <predicted_activity_value>
7.853871964321762

> <actual_activity_value>
7.721246399047171

> <Compound>
2

> <standard_units>
nM

> hash
1860001942647851610

$$$$
1
XXILIB    08252103513D 0   0.00000     0.00000

 30 33  0     1  0            999 V2000
    5.0018    1.5001    0.0754 Cl  0  0  0  0  0  1           0  0  0
    1.6088    2.9014    1.4055 O   0  0  0  0  0  2           0  0  0
   -5.3910   -1.4412    2.9777 N   0  0  0  0  0  3           0  0  0
   -5.3189   -2.5916    3.6333 N   0  0  0  0  0  3           0  0  0
   -4.6472   -0.5866    3.6928 N   0  0  0  0  0  3           0  0  0
   -4.5362   -2.4722    4.7581 N   0  0  0  0  0  3           0  0  0
    1.4523    0.0000    0.0000 N   0  0  0  0  0  3           0  0  0
    3.5402   -0.7587    0.0177 N   0  0  0  0  0  3           0  0  0
    3.5479    0.6111    0.0382 C   0  0  0  0  0  4           0  0  0
   -4.1215   -1.2207    4.7857 C   0  0  0  0  0  4           0  0  0
    2.2705   -1.1132    0.0000 C   0  0  0  0  0  4           0  0  0
    2.2622    1.1181    0.0299 C   0  0  0  0  0  4           0  0  0
   -3.2747   -0.5838    5.7647 C   0  0  0  0  0  4           0  0  0
   -2.0364    0.0012    5.4141 C   0  0  0  0  0  4           0  0  0
   -1.5275    0.0005    4.0481 C   0  0  0  0  0  4           0  0  0
   -0.5412    0.0000    1.3973 C   0  0  0  0  0  4           0  0  0
   -3.7044   -0.5629    7.1019 C   0  0  0  0  0  4           0  0  0
   -1.2671    0.6012    6.4297 C   0  0  0  0  0  4           0  0  0
   -1.2884   -1.2046    3.3712 C   0  0  0  0  0  4           0  0  0
   -1.2624    1.2052    3.3807 C   0  0  0  0  0  4           0  0  0
   -0.7987   -1.2048    2.0620 C   0  0  0  0  0  4           0  0  0
   -0.7726    1.2049    2.0716 C   0  0  0  0  0  4           0  0  0
   -2.9250    0.0369    8.0896 C   0  0  0  0  0  4           0  0  0
   -1.7078    0.6199    7.7539 C   0  0  0  0  0  4           0  0  0
    1.7712    2.5125    0.0484 C   0  0  0  0  0  4           0  0  0
    0.0000   -0.0000    0.0000 C   0  0  0  0  0  4           0  0  0
    1.7871   -2.5213   -0.0137 C   0  0  0  0  0  4           0  0  0
    2.5459   -3.3811    0.9909 C   0  0  0  0  0  4           0  0  0
    2.4226   -2.9092    2.4404 C   0  0  0  0  0  4           0  0  0
    3.1912   -3.7887    3.4155 C   0  0  0  0  0  4           0  0  0
  1  9  1  0     0  0
  2 25  1  0     0  0
  3  4  2  0     0  0
  3  5  1  0     0  0
  4  6  1  0     0  0
  5 10  1  0     0  0
  6 10  2  0     0  0
  7 11  1  0     0  0
  7 12  1  0     0  0
  7 26  1  0     0  0
  8  9  1  0     0  0
  8 11  2  0     0  0
  9 12  2  0     0  0
 10 13  1  0     0  0
 11 27  1  0     0  0
 12 25  1  0     0  0
 13 14  1  0     0  0
 13 17  2  0     0  0
 14 15  1  0     0  0
 14 18  2  0     0  0
 15 19  2  0     0  0
 15 20  1  0     0  0
 16 21  2  0     0  0
 16 22  1  0     0  0
 16 26  1  0     0  0
 17 23  1  0     0  0
 18 24  1  0     0  0
 19 21  1  0     0  0
 20 22  2  0     0  0
 23 24  2  0     0  0
 27 28  1  0     0  0
 28 29  1  0     0  0
 29 30  1  0     0  0
M  END
> <standard_type>
pIC50

> <# Confs.>
25

> <canonical_smiles>
ClC(N=C1CCCC)=C(CO)N1CC2=CC=C(C3=CC=CC=C3C4=NN=NN4)C=C2

> <standard_relation>
=

> <Publication_ID>
nan

> <predicted_activity_value>
7.853871964321762

> <actual_activity_value>
7.721246399047171

> <Compound>
2

> <standard_units>
nM

> hash
1860001942647851610

$$$$
24
XXILIB    08252103513D 0   0.00000     0.00000

 21 22  0     1  0            999 V2000
   -3.3323   -0.0164   -1.7737 Cl  0  0  0  0  0  1           0  0  0
   -3.6351   -1.8419    3.1727 O   0  0  0  0  0  2           0  0  0
   -4.0894   -2.0700    0.9582 O   0  0  0  0  0  2           0  0  0
   -0.7894    0.0000    1.1322 N   0  0  0  0  0  3           0  0  0
   -0.7457   -0.0035   -1.0847 N   0  0  0  0  0  3           0  0  0
   -2.0471    0.0029   -0.6516 C   0  0  0  0  0  4           0  0  0
    0.0000    0.0000    0.0000 C   0  0  0  0  0  4           0  0  0
   -2.1161    0.0199    0.7323 C   0  0  0  0  0  4           0  0  0
   -0.1225    1.3716    3.0300 C   0  0  0  0  0  4           0  0  0
   -0.3912    2.4829    2.2185 C   0  0  0  0  0  4           0  0  0
    0.3043    1.5821    4.3490 C   0  0  0  0  0  4           0  0  0
   -0.2282    3.7778    2.7141 C   0  0  0  0  0  4           0  0  0
    0.4675    2.8777    4.8423 C   0  0  0  0  0  4           0  0  0
    0.2010    3.9747    4.0251 C   0  0  0  0  0  4           0  0  0
   -3.6609   -1.3737    2.0415 C   0  0  0  0  0  4           0  0  0
   -0.3165   -0.0182    2.5059 C   0  0  0  0  0  4           0  0  0
    1.4870    0.0000    0.0000 C   0  0  0  0  0  4           0  0  0
   -3.2396    0.0279    1.7027 C   0  0  0  0  0  4           0  0  0
    2.0677   -1.4109    0.0000 C   0  0  0  0  0  4           0  0  0
    3.5956   -1.4697    0.0000 C   0  0  0  0  0  4           0  0  0
    4.1362   -2.8919    0.0000 C   0  0  0  0  0  4           0  0  0
  1  6  1  0     0  0
  2 15  2  0     0  0
  3 15  1  0     0  0
  4  7  1  0     0  0
  4  8  1  0     0  0
  4 16  1  0     0  0
  5  6  1  0     0  0
  5  7  2  0     0  0
  6  8  2  0     0  0
  7 17  1  0     0  0
  8 18  1  0     0  0
  9 10  2  0     0  0
  9 11  1  0     0  0
  9 16  1  0     0  0
 10 12  1  0     0  0
 11 13  2  0     0  0
 12 14  2  0     0  0
 13 14  1  0     0  0
 15 18  1  0     0  0
 17 19  1  0     0  0
 19 20  1  0     0  0
 20 21  1  0     0  0
M  END
> <standard_type>
pIC50

> <# Confs.>
25

> <canonical_smiles>
CCCCC1=NC(Cl)=C(CC(O)=O)N1CC2=CC=CC=C2

> <standard_relation>
=

> <Publication_ID>
nan

> <predicted_activity_value>
5.0

> <actual_activity_value>
3.8239087409443187

> <Compound>
25

> <standard_units>
nM

> hash
1023660401049005096

$$$$
24
XXILIB    08252103513D 0   0.00000     0.00000

 21 22  0     1  0            999 V2000
   -3.3323   -0.0164   -1.7737 Cl  0  0  0  0  0  1           0  0  0
   -3.5868    1.8872    3.1978 O   0  0  0  0  0  2           0  0  0
   -4.0091    2.1649    0.9826 O   0  0  0  0  0  2           0  0  0
   -0.7894   -0.0000    1.1322 N   0  0  0  0  0  3           0  0  0
   -0.7457   -0.0035   -1.0847 N   0  0  0  0  0  3           0  0  0
   -2.0471    0.0029   -0.6516 C   0  0  0  0  0  4           0  0  0
    0.0000    0.0000   -0.0000 C   0  0  0  0  0  4           0  0  0
   -2.1161    0.0199    0.7323 C   0  0  0  0  0  4           0  0  0
   -0.1581   -1.4216    3.0052 C   0  0  0  0  0  4           0  0  0
   -0.4549   -2.5111    2.1741 C   0  0  0  0  0  4           0  0  0
    0.3157   -1.6669    4.3019 C   0  0  0  0  0  4           0  0  0
   -0.2889   -3.8188    2.6341 C   0  0  0  0  0  4           0  0  0
    0.4802   -2.9752    4.7602 C   0  0  0  0  0  4           0  0  0
    0.1782   -4.0502    3.9264 C   0  0  0  0  0  4           0  0  0
   -3.6245    1.4352    2.0604 C   0  0  0  0  0  4           0  0  0
   -0.3165   -0.0182    2.5059 C   0  0  0  0  0  4           0  0  0
    1.4870    0.0000    0.0000 C   0  0  0  0  0  4           0  0  0
   -3.2396    0.0279    1.7027 C   0  0  0  0  0  4           0  0  0
    2.0677    1.4109    0.0000 C   0  0  0  0  0  4           0  0  0
    3.5956    1.4697   -0.0000 C   0  0  0  0  0  4           0  0  0
    4.1362    2.8919    0.0000 C   0  0  0  0  0  4           0  0  0
  1  6  1  0     0  0
  2 15  2  0     0  0
  3 15  1  0     0  0
  4  7  1  0     0  0
  4  8  1  0     0  0
  4 16  1  0     0  0
  5  6  1  0     0  0
  5  7  2  0     0  0
  6  8  2  0     0  0
  7 17  1  0     0  0
  8 18  1  0     0  0
  9 10  2  0     0  0
  9 11  1  0     0  0
  9 16  1  0     0  0
 10 12  1  0     0  0
 11 13  2  0     0  0
 12 14  2  0     0  0
 13 14  1  0     0  0
 15 18  1  0     0  0
 17 19  1  0     0  0
 19 20  1  0     0  0
 20 21  1  0     0  0
M  END
> <standard_type>
pIC50

> <# Confs.>
25

> <canonical_smiles>
CCCCC1=NC(Cl)=C(CC(O)=O)N1CC2=CC=CC=C2

> <standard_relation>
=

> <Publication_ID>
nan

> <predicted_activity_value>
5.0

> <actual_activity_value>
3.8239087409443187

> <Compound>
25

> <standard_units>
nM

> hash
1023660401049005096

$$$$
24
XXILIB    08252103513D 0   0.00000     0.00000

 21 22  0     1  0            999 V2000
   -3.3323   -0.0164   -1.7737 Cl  0  0  0  0  0  1           0  0  0
   -3.6351   -1.8419    3.1727 O   0  0  0  0  0  2           0  0  0
   -4.0894   -2.0700    0.9582 O   0  0  0  0  0  2           0  0  0
   -0.7894    0.0000    1.1322 N   0  0  0  0  0  3           0  0  0
   -0.7457   -0.0035   -1.0847 N   0  0  0  0  0  3           0  0  0
   -2.0471    0.0029   -0.6516 C   0  0  0  0  0  4           0  0  0
    0.0000    0.0000    0.0000 C   0  0  0  0  0  4           0  0  0
   -2.1161    0.0199    0.7323 C   0  0  0  0  0  4           0  0  0
   -0.1225    1.3716    3.0300 C   0  0  0  0  0  4           0  0  0
   -0.3912    2.4829    2.2185 C   0  0  0  0  0  4           0  0  0
    0.3043    1.5821    4.3490 C   0  0  0  0  0  4           0  0  0
   -0.2282    3.7778    2.7141 C   0  0  0  0  0  4           0  0  0
    0.4675    2.8777    4.8423 C   0  0  0  0  0  4           0  0  0
    0.2010    3.9747    4.0251 C   0  0  0  0  0  4           0  0  0
   -3.6609   -1.3737    2.0415 C   0  0  0  0  0  4           0  0  0
   -0.3165   -0.0182    2.5059 C   0  0  0  0  0  4           0  0  0
    1.4870    0.0000   -0.0000 C   0  0  0  0  0  4           0  0  0
   -3.2396    0.0279    1.7027 C   0  0  0  0  0  4           0  0  0
    2.0677   -1.4109    0.0000 C   0  0  0  0  0  4           0  0  0
    1.6668   -2.2635   -1.2042 C   0  0  0  0  0  4           0  0  0
    2.2647   -3.6621   -1.1684 C   0  0  0  0  0  4           0  0  0
  1  6  1  0     0  0
  2 15  2  0     0  0
  3 15  1  0     0  0
  4  7  1  0     0  0
  4  8  1  0     0  0
  4 16  1  0     0  0
  5  6  1  0     0  0
  5  7  2  0     0  0
  6  8  2  0     0  0
  7 17  1  0     0  0
  8 18  1  0     0  0
  9 10  2  0     0  0
  9 11  1  0     0  0
  9 16  1  0     0  0
 10 12  1  0     0  0
 11 13  2  0     0  0
 12 14  2  0     0  0
 13 14  1  0     0  0
 15 18  1  0     0  0
 17 19  1  0     0  0
 19 20  1  0     0  0
 20 21  1  0     0  0
M  END
> <standard_type>
pIC50

> <# Confs.>
25

> <canonical_smiles>
CCCCC1=NC(Cl)=C(CC(O)=O)N1CC2=CC=CC=C2

> <standard_relation>
=

> <Publication_ID>
nan

> <predicted_activity_value>
5.0

> <actual_activity_value>
3.8239087409443187

> <Compound>
25

> <standard_units>
nM

> hash
1023660401049005096

$$$$
24
XXILIB    08252103513D 0   0.00000     0.00000

 21 22  0     1  0            999 V2000
   -3.3323   -0.0164   -1.7737 Cl  0  0  0  0  0  1           0  0  0
   -3.5868    1.8872    3.1978 O   0  0  0  0  0  2           0  0  0
   -4.0091    2.1649    0.9826 O   0  0  0  0  0  2           0  0  0
   -0.7894   -0.0000    1.1322 N   0  0  0  0  0  3           0  0  0
   -0.7457   -0.0035   -1.0847 N   0  0  0  0  0  3           0  0  0
   -2.0471    0.0029   -0.6516 C   0  0  0  0  0  4           0  0  0
    0.0000    0.0000   -0.0000 C   0  0  0  0  0  4           0  0  0
   -2.1161    0.0199    0.7323 C   0  0  0  0  0  4           0  0  0
   -0.1581   -1.4216    3.0052 C   0  0  0  0  0  4           0  0  0
   -0.4549   -2.5111    2.1741 C   0  0  0  0  0  4           0  0  0
    0.3157   -1.6669    4.3019 C   0  0  0  0  0  4           0  0  0
   -0.2889   -3.8188    2.6341 C   0  0  0  0  0  4           0  0  0
    0.4802   -2.9752    4.7602 C   0  0  0  0  0  4           0  0  0
    0.1782   -4.0502    3.9264 C   0  0  0  0  0  4           0  0  0
   -3.6245    1.4352    2.0604 C   0  0  0  0  0  4           0  0  0
   -0.3165   -0.0182    2.5059 C   0  0  0  0  0  4           0  0  0
    1.4870   -0.0000   -0.0000 C   0  0  0  0  0  4           0  0  0
   -3.2396    0.0279    1.7027 C   0  0  0  0  0  4           0  0  0
    2.0677    1.4109    0.0000 C   0  0  0  0  0  4           0  0  0
    1.6668    2.2635   -1.2042 C   0  0  0  0  0  4           0  0  0
    2.2647    3.6621   -1.1684 C   0  0  0  0  0  4           0  0  0
  1  6  1  0     0  0
  2 15  2  0     0  0
  3 15  1  0     0  0
  4  7  1  0     0  0
  4  8  1  0     0  0
  4 16  1  0     0  0
  5  6  1  0     0  0
  5  7  2  0     0  0
  6  8  2  0     0  0
  7 17  1  0     0  0
  8 18  1  0     0  0
  9 10  2  0     0  0
  9 11  1  0     0  0
  9 16  1  0     0  0
 10 12  1  0     0  0
 11 13  2  0     0  0
 12 14  2  0     0  0
 13 14  1  0     0  0
 15 18  1  0     0  0
 17 19  1  0     0  0
 19 20  1  0     0  0
 20 21  1  0     0  0
M  END
> <standard_type>
pIC50

> <# Confs.>
25

> <canonical_smiles>
CCCCC1=NC(Cl)=C(CC(O)=O)N1CC2=CC=CC=C2

> <standard_relation>
=

> <Publication_ID>
nan

> <predicted_activity_value>
5.0

> <actual_activity_value>
3.8239087409443187

> <Compound>
25

> <standard_units>
nM

> hash
1023660401049005096

$$$$
24
XXILIB    08252103513D 0   0.00000     0.00000

 21 22  0     1  0            999 V2000
   -3.3323   -0.0164   -1.7737 Cl  0  0  0  0  0  1           0  0  0
   -3.6351   -1.8419    3.1727 O   0  0  0  0  0  2           0  0  0
   -4.0894   -2.0700    0.9582 O   0  0  0  0  0  2           0  0  0
   -0.7894    0.0000    1.1322 N   0  0  0  0  0  3           0  0  0
   -0.7457   -0.0035   -1.0847 N   0  0  0  0  0  3           0  0  0
   -2.0471    0.0029   -0.6516 C   0  0  0  0  0  4           0  0  0
    0.0000    0.0000    0.0000 C   0  0  0  0  0  4           0  0  0
   -2.1161    0.0199    0.7323 C   0  0  0  0  0  4           0  0  0
   -0.1225    1.3716    3.0300 C   0  0  0  0  0  4           0  0  0
   -0.3912    2.4829    2.2185 C   0  0  0  0  0  4           0  0  0
    0.3043    1.5821    4.3490 C   0  0  0  0  0  4           0  0  0
   -0.2282    3.7778    2.7141 C   0  0  0  0  0  4           0  0  0
    0.4675    2.8777    4.8423 C   0  0  0  0  0  4           0  0  0
    0.2010    3.9747    4.0251 C   0  0  0  0  0  4           0  0  0
   -3.6609   -1.3737    2.0415 C   0  0  0  0  0  4           0  0  0
   -0.3165   -0.0182    2.5059 C   0  0  0  0  0  4           0  0  0
    1.4870   -0.0000    0.0000 C   0  0  0  0  0  4           0  0  0
   -3.2396    0.0279    1.7027 C   0  0  0  0  0  4           0  0  0
    2.0677    0.9977   -0.9977 C   0  0  0  0  0  4           0  0  0
    1.6668    2.4521   -0.7490 C   0  0  0  0  0  4           0  0  0
    2.2647    3.4157   -1.7633 C   0  0  0  0  0  4           0  0  0
  1  6  1  0     0  0
  2 15  2  0     0  0
  3 15  1  0     0  0
  4  7  1  0     0  0
  4  8  1  0     0  0
  4 16  1  0     0  0
  5  6  1  0     0  0
  5  7  2  0     0  0
  6  8  2  0     0  0
  7 17  1  0     0  0
  8 18  1  0     0  0
  9 10  2  0     0  0
  9 11  1  0     0  0
  9 16  1  0     0  0
 10 12  1  0     0  0
 11 13  2  0     0  0
 12 14  2  0     0  0
 13 14  1  0     0  0
 15 18  1  0     0  0
 17 19  1  0     0  0
 19 20  1  0     0  0
 20 21  1  0     0  0
M  END
> <standard_type>
pIC50

> <# Confs.>
25

> <canonical_smiles>
CCCCC1=NC(Cl)=C(CC(O)=O)N1CC2=CC=CC=C2

> <standard_relation>
=

> <Publication_ID>
nan

> <predicted_activity_value>
5.0

> <actual_activity_value>
3.8239087409443187

> <Compound>
25

> <standard_units>
nM

> hash
1023660401049005096

$$$$
24
XXILIB    08252103513D 0   0.00000     0.00000

 21 22  0     1  0            999 V2000
   -3.3323   -0.0164   -1.7737 Cl  0  0  0  0  0  1           0  0  0
   -3.6351   -1.8419    3.1727 O   0  0  0  0  0  2           0  0  0
   -4.0894   -2.0700    0.9582 O   0  0  0  0  0  2           0  0  0
   -0.7894    0.0000    1.1322 N   0  0  0  0  0  3           0  0  0
   -0.7457   -0.0035   -1.0847 N   0  0  0  0  0  3           0  0  0
   -2.0471    0.0029   -0.6516 C   0  0  0  0  0  4           0  0  0
    0.0000    0.0000    0.0000 C   0  0  0  0  0  4           0  0  0
   -2.1161    0.0199    0.7323 C   0  0  0  0  0  4           0  0  0
   -0.1225    1.3716    3.0300 C   0  0  0  0  0  4           0  0  0
   -0.3912    2.4829    2.2185 C   0  0  0  0  0  4           0  0  0
    0.3043    1.5821    4.3490 C   0  0  0  0  0  4           0  0  0
   -0.2282    3.7778    2.7141 C   0  0  0  0  0  4           0  0  0
    0.4675    2.8777    4.8423 C   0  0  0  0  0  4           0  0  0
    0.2010    3.9747    4.0251 C   0  0  0  0  0  4           0  0  0
   -3.6609   -1.3737    2.0415 C   0  0  0  0  0  4           0  0  0
   -0.3165   -0.0182    2.5059 C   0  0  0  0  0  4           0  0  0
    1.4870    0.0000    0.0000 C   0  0  0  0  0  4           0  0  0
   -3.2396    0.0279    1.7027 C   0  0  0  0  0  4           0  0  0
    2.0677    0.0000   -1.4109 C   0  0  0  0  0  4           0  0  0
    3.5956    0.0000   -1.4697 C   0  0  0  0  0  4           0  0  0
    4.1362    0.0000   -2.8919 C   0  0  0  0  0  4           0  0  0
  1  6  1  0     0  0
  2 15  2  0     0  0
  3 15  1  0     0  0
  4  7  1  0     0  0
  4  8  1  0     0  0
  4 16  1  0     0  0
  5  6  1  0     0  0
  5  7  2  0     0  0
  6  8  2  0     0  0
  7 17  1  0     0  0
  8 18  1  0     0  0
  9 10  2  0     0  0
  9 11  1  0     0  0
  9 16  1  0     0  0
 10 12  1  0     0  0
 11 13  2  0     0  0
 12 14  2  0     0  0
 13 14  1  0     0  0
 15 18  1  0     0  0
 17 19  1  0     0  0
 19 20  1  0     0  0
 20 21  1  0     0  0
M  END
> <standard_type>
pIC50

> <# Confs.>
25

> <canonical_smiles>
CCCCC1=NC(Cl)=C(CC(O)=O)N1CC2=CC=CC=C2

> <standard_relation>
=

> <Publication_ID>
nan

> <predicted_activity_value>
5.0

> <actual_activity_value>
3.8239087409443187

> <Compound>
25

> <standard_units>
nM

> hash
1023660401049005096

$$$$
24
XXILIB    08252103513D 0   0.00000     0.00000

 21 22  0     1  0            999 V2000
   -3.3323   -0.0164   -1.7737 Cl  0  0  0  0  0  1           0  0  0
   -3.5868    1.8872    3.1978 O   0  0  0  0  0  2           0  0  0
   -4.0091    2.1649    0.9826 O   0  0  0  0  0  2           0  0  0
   -0.7894   -0.0000    1.1322 N   0  0  0  0  0  3           0  0  0
   -0.7457   -0.0035   -1.0847 N   0  0  0  0  0  3           0  0  0
   -2.0471    0.0029   -0.6516 C   0  0  0  0  0  4           0  0  0
    0.0000    0.0000   -0.0000 C   0  0  0  0  0  4           0  0  0
   -2.1161    0.0199    0.7323 C   0  0  0  0  0  4           0  0  0
   -0.1581   -1.4216    3.0052 C   0  0  0  0  0  4           0  0  0
   -0.4549   -2.5111    2.1741 C   0  0  0  0  0  4           0  0  0
    0.3157   -1.6669    4.3019 C   0  0  0  0  0  4           0  0  0
   -0.2889   -3.8188    2.6341 C   0  0  0  0  0  4           0  0  0
    0.4802   -2.9752    4.7602 C   0  0  0  0  0  4           0  0  0
    0.1782   -4.0502    3.9264 C   0  0  0  0  0  4           0  0  0
   -3.6245    1.4352    2.0604 C   0  0  0  0  0  4           0  0  0
   -0.3165   -0.0182    2.5059 C   0  0  0  0  0  4           0  0  0
    1.4870    0.0000    0.0000 C   0  0  0  0  0  4           0  0  0
   -3.2396    0.0279    1.7027 C   0  0  0  0  0  4           0  0  0
    2.0677    0.0000   -1.4109 C   0  0  0  0  0  4           0  0  0
    3.5956    0.0000   -1.4697 C   0  0  0  0  0  4           0  0  0
    4.1362    0.0000   -2.8919 C   0  0  0  0  0  4           0  0  0
  1  6  1  0     0  0
  2 15  2  0     0  0
  3 15  1  0     0  0
  4  7  1  0     0  0
  4  8  1  0     0  0
  4 16  1  0     0  0
  5  6  1  0     0  0
  5  7  2  0     0  0
  6  8  2  0     0  0
  7 17  1  0     0  0
  8 18  1  0     0  0
  9 10  2  0     0  0
  9 11  1  0     0  0
  9 16  1  0     0  0
 10 12  1  0     0  0
 11 13  2  0     0  0
 12 14  2  0     0  0
 13 14  1  0     0  0
 15 18  1  0     0  0
 17 19  1  0     0  0
 19 20  1  0     0  0
 20 21  1  0     0  0
M  END
> <standard_type>
pIC50

> <# Confs.>
25

> <canonical_smiles>
CCCCC1=NC(Cl)=C(CC(O)=O)N1CC2=CC=CC=C2

> <standard_relation>
=

> <Publication_ID>
nan

> <predicted_activity_value>
5.0

> <actual_activity_value>
3.8239087409443187

> <Compound>
25

> <standard_units>
nM

> hash
1023660401049005096

$$$$
24
XXILIB    08252103513D 0   0.00000     0.00000

 21 22  0     1  0            999 V2000
   -3.3323   -0.0164   -1.7737 Cl  0  0  0  0  0  1           0  0  0
   -3.5868    1.8872    3.1978 O   0  0  0  0  0  2           0  0  0
   -4.0091    2.1649    0.9826 O   0  0  0  0  0  2           0  0  0
   -0.7894   -0.0000    1.1322 N   0  0  0  0  0  3           0  0  0
   -0.7457   -0.0035   -1.0847 N   0  0  0  0  0  3           0  0  0
   -2.0471    0.0029   -0.6516 C   0  0  0  0  0  4           0  0  0
    0.0000    0.0000   -0.0000 C   0  0  0  0  0  4           0  0  0
   -2.1161    0.0199    0.7323 C   0  0  0  0  0  4           0  0  0
   -0.1581   -1.4216    3.0052 C   0  0  0  0  0  4           0  0  0
   -0.4549   -2.5111    2.1741 C   0  0  0  0  0  4           0  0  0
    0.3157   -1.6669    4.3019 C   0  0  0  0  0  4           0  0  0
   -0.2889   -3.8188    2.6341 C   0  0  0  0  0  4           0  0  0
    0.4802   -2.9752    4.7602 C   0  0  0  0  0  4           0  0  0
    0.1782   -4.0502    3.9264 C   0  0  0  0  0  4           0  0  0
   -3.6245    1.4352    2.0604 C   0  0  0  0  0  4           0  0  0
   -0.3165   -0.0182    2.5059 C   0  0  0  0  0  4           0  0  0
    1.4870    0.0000    0.0000 C   0  0  0  0  0  4           0  0  0
   -3.2396    0.0279    1.7027 C   0  0  0  0  0  4           0  0  0
    2.0677   -0.9977   -0.9977 C   0  0  0  0  0  4           0  0  0
    1.6668   -2.4521   -0.7490 C   0  0  0  0  0  4           0  0  0
    2.2647   -3.4157   -1.7633 C   0  0  0  0  0  4           0  0  0
  1  6  1  0     0  0
  2 15  2  0     0  0
  3 15  1  0     0  0
  4  7  1  0     0  0
  4  8  1  0     0  0
  4 16  1  0     0  0
  5  6  1  0     0  0
  5  7  2  0     0  0
  6  8  2  0     0  0
  7 17  1  0     0  0
  8 18  1  0     0  0
  9 10  2  0     0  0
  9 11  1  0     0  0
  9 16  1  0     0  0
 10 12  1  0     0  0
 11 13  2  0     0  0
 12 14  2  0     0  0
 13 14  1  0     0  0
 15 18  1  0     0  0
 17 19  1  0     0  0
 19 20  1  0     0  0
 20 21  1  0     0  0
M  END
> <standard_type>
pIC50

> <# Confs.>
25

> <canonical_smiles>
CCCCC1=NC(Cl)=C(CC(O)=O)N1CC2=CC=CC=C2

> <standard_relation>
=

> <Publication_ID>
nan

> <predicted_activity_value>
5.0

> <actual_activity_value>
3.8239087409443187

> <Compound>
25

> <standard_units>
nM

> hash
1023660401049005096

$$$$
24
XXILIB    08252103513D 0   0.00000     0.00000

 21 22  0     1  0            999 V2000
   -3.3323   -0.0164   -1.7737 Cl  0  0  0  0  0  1           0  0  0
   -3.5868    1.8872    3.1978 O   0  0  0  0  0  2           0  0  0
   -4.0091    2.1649    0.9826 O   0  0  0  0  0  2           0  0  0
   -0.7894   -0.0000    1.1322 N   0  0  0  0  0  3           0  0  0
   -0.7457   -0.0035   -1.0847 N   0  0  0  0  0  3           0  0  0
   -2.0471    0.0029   -0.6516 C   0  0  0  0  0  4           0  0  0
    0.0000    0.0000   -0.0000 C   0  0  0  0  0  4           0  0  0
   -2.1161    0.0199    0.7323 C   0  0  0  0  0  4           0  0  0
   -0.1581   -1.4216    3.0052 C   0  0  0  0  0  4           0  0  0
    0.4614   -2.3953    2.2090 C   0  0  0  0  0  4           0  0  0
   -0.6023   -1.7758    4.2871 C   0  0  0  0  0  4           0  0  0
    0.6254   -3.6983    2.6827 C   0  0  0  0  0  4           0  0  0
   -0.4380   -3.0794    4.7587 C   0  0  0  0  0  4           0  0  0
    0.1758   -4.0397    3.9567 C   0  0  0  0  0  4           0  0  0
   -3.6245    1.4352    2.0604 C   0  0  0  0  0  4           0  0  0
   -0.3165   -0.0182    2.5059 C   0  0  0  0  0  4           0  0  0
    1.4870    0.0000    0.0000 C   0  0  0  0  0  4           0  0  0
   -3.2396    0.0279    1.7027 C   0  0  0  0  0  4           0  0  0
    2.0677    0.9977   -0.9977 C   0  0  0  0  0  4           0  0  0
    3.5956    1.0392   -1.0392 C   0  0  0  0  0  4           0  0  0
    4.1362    2.0449   -2.0449 C   0  0  0  0  0  4           0  0  0
  1  6  1  0     0  0
  2 15  2  0     0  0
  3 15  1  0     0  0
  4  7  1  0     0  0
  4  8  1  0     0  0
  4 16  1  0     0  0
  5  6  1  0     0  0
  5  7  2  0     0  0
  6  8  2  0     0  0
  7 17  1  0     0  0
  8 18  1  0     0  0
  9 10  2  0     0  0
  9 11  1  0     0  0
  9 16  1  0     0  0
 10 12  1  0     0  0
 11 13  2  0     0  0
 12 14  2  0     0  0
 13 14  1  0     0  0
 15 18  1  0     0  0
 17 19  1  0     0  0
 19 20  1  0     0  0
 20 21  1  0     0  0
M  END
> <standard_type>
pIC50

> <# Confs.>
25

> <canonical_smiles>
CCCCC1=NC(Cl)=C(CC(O)=O)N1CC2=CC=CC=C2

> <standard_relation>
=

> <Publication_ID>
nan

> <predicted_activity_value>
5.0

> <actual_activity_value>
3.8239087409443187

> <Compound>
25

> <standard_units>
nM

> hash
1023660401049005096

$$$$
24
XXILIB    08252103513D 0   0.00000     0.00000

 21 22  0     1  0            999 V2000
   -3.3323   -0.0164   -1.7737 Cl  0  0  0  0  0  1           0  0  0
   -3.5868    1.8872    3.1978 O   0  0  0  0  0  2           0  0  0
   -4.0091    2.1649    0.9826 O   0  0  0  0  0  2           0  0  0
   -0.7894   -0.0000    1.1322 N   0  0  0  0  0  3           0  0  0
   -0.7457   -0.0035   -1.0847 N   0  0  0  0  0  3           0  0  0
   -2.0471    0.0029   -0.6516 C   0  0  0  0  0  4           0  0  0
    0.0000    0.0000   -0.0000 C   0  0  0  0  0  4           0  0  0
   -2.1161    0.0199    0.7323 C   0  0  0  0  0  4           0  0  0
   -0.1581   -1.4216    3.0052 C   0  0  0  0  0  4           0  0  0
    0.4614   -2.3953    2.2090 C   0  0  0  0  0  4           0  0  0
   -0.6023   -1.7758    4.2871 C   0  0  0  0  0  4           0  0  0
    0.6254   -3.6983    2.6827 C   0  0  0  0  0  4           0  0  0
   -0.4380   -3.0794    4.7587 C   0  0  0  0  0  4           0  0  0
    0.1758   -4.0397    3.9567 C   0  0  0  0  0  4           0  0  0
   -3.6245    1.4352    2.0604 C   0  0  0  0  0  4           0  0  0
   -0.3165   -0.0182    2.5059 C   0  0  0  0  0  4           0  0  0
    1.4870    0.0000    0.0000 C   0  0  0  0  0  4           0  0  0
   -3.2396    0.0279    1.7027 C   0  0  0  0  0  4           0  0  0
    2.0677   -0.9977   -0.9977 C   0  0  0  0  0  4           0  0  0
    3.5956   -1.0392   -1.0392 C   0  0  0  0  0  4           0  0  0
    4.1362   -2.0449   -2.0449 C   0  0  0  0  0  4           0  0  0
  1  6  1  0     0  0
  2 15  2  0     0  0
  3 15  1  0     0  0
  4  7  1  0     0  0
  4  8  1  0     0  0
  4 16  1  0     0  0
  5  6  1  0     0  0
  5  7  2  0     0  0
  6  8  2  0     0  0
  7 17  1  0     0  0
  8 18  1  0     0  0
  9 10  2  0     0  0
  9 11  1  0     0  0
  9 16  1  0     0  0
 10 12  1  0     0  0
 11 13  2  0     0  0
 12 14  2  0     0  0
 13 14  1  0     0  0
 15 18  1  0     0  0
 17 19  1  0     0  0
 19 20  1  0     0  0
 20 21  1  0     0  0
M  END
> <standard_type>
pIC50

> <# Confs.>
25

> <canonical_smiles>
CCCCC1=NC(Cl)=C(CC(O)=O)N1CC2=CC=CC=C2

> <standard_relation>
=

> <Publication_ID>
nan

> <predicted_activity_value>
5.0

> <actual_activity_value>
3.8239087409443187

> <Compound>
25

> <standard_units>
nM

> hash
1023660401049005096

$$$$
24
XXILIB    08252103513D 0   0.00000     0.00000

 21 22  0     1  0            999 V2000
   -3.3323   -0.0164   -1.7737 Cl  0  0  0  0  0  1           0  0  0
   -3.1364    2.0628    2.9917 O   0  0  0  0  0  2           0  0  0
   -4.5673    1.9492    1.2304 O   0  0  0  0  0  2           0  0  0
   -0.7894   -0.0000    1.1322 N   0  0  0  0  0  3           0  0  0
   -0.7457   -0.0035   -1.0847 N   0  0  0  0  0  3           0  0  0
   -2.0471    0.0029   -0.6516 C   0  0  0  0  0  4           0  0  0
    0.0000    0.0000   -0.0000 C   0  0  0  0  0  4           0  0  0
   -2.1161    0.0199    0.7323 C   0  0  0  0  0  4           0  0  0
   -0.1581   -1.4216    3.0052 C   0  0  0  0  0  4           0  0  0
   -0.4549   -2.5111    2.1741 C   0  0  0  0  0  4           0  0  0
    0.3157   -1.6669    4.3019 C   0  0  0  0  0  4           0  0  0
   -0.2889   -3.8188    2.6341 C   0  0  0  0  0  4           0  0  0
    0.4802   -2.9752    4.7602 C   0  0  0  0  0  4           0  0  0
    0.1782   -4.0502    3.9264 C   0  0  0  0  0  4           0  0  0
   -3.6245    1.4352    2.0604 C   0  0  0  0  0  4           0  0  0
   -0.3165   -0.0182    2.5059 C   0  0  0  0  0  4           0  0  0
    1.4870    0.0000    0.0000 C   0  0  0  0  0  4           0  0  0
   -3.2396    0.0279    1.7027 C   0  0  0  0  0  4           0  0  0
    2.0677    1.4109    0.0000 C   0  0  0  0  0  4           0  0  0
    3.5956    1.4697   -0.0000 C   0  0  0  0  0  4           0  0  0
    4.2170    0.7929    1.2128 C   0  0  0  0  0  4           0  0  0
  1  6  1  0     0  0
  2 15  2  0     0  0
  3 15  1  0     0  0
  4  7  1  0     0  0
  4  8  1  0     0  0
  4 16  1  0     0  0
  5  6  1  0     0  0
  5  7  2  0     0  0
  6  8  2  0     0  0
  7 17  1  0     0  0
  8 18  1  0     0  0
  9 10  2  0     0  0
  9 11  1  0     0  0
  9 16  1  0     0  0
 10 12  1  0     0  0
 11 13  2  0     0  0
 12 14  2  0     0  0
 13 14  1  0     0  0
 15 18  1  0     0  0
 17 19  1  0     0  0
 19 20  1  0     0  0
 20 21  1  0     0  0
M  END
> <standard_type>
pIC50

> <# Confs.>
25

> <canonical_smiles>
CCCCC1=NC(Cl)=C(CC(O)=O)N1CC2=CC=CC=C2

> <standard_relation>
=

> <Publication_ID>
nan

> <predicted_activity_value>
5.0

> <actual_activity_value>
3.8239087409443187

> <Compound>
25

> <standard_units>
nM

> hash
1023660401049005096

$$$$
24
XXILIB    08252103513D 0   0.00000     0.00000

 21 22  0     1  0            999 V2000
   -3.3323   -0.0164   -1.7737 Cl  0  0  0  0  0  1           0  0  0
   -3.6351   -1.8419    3.1727 O   0  0  0  0  0  2           0  0  0
   -4.0894   -2.0700    0.9582 O   0  0  0  0  0  2           0  0  0
   -0.7894    0.0000    1.1322 N   0  0  0  0  0  3           0  0  0
   -0.7457   -0.0035   -1.0847 N   0  0  0  0  0  3           0  0  0
   -2.0471    0.0029   -0.6516 C   0  0  0  0  0  4           0  0  0
    0.0000    0.0000    0.0000 C   0  0  0  0  0  4           0  0  0
   -2.1161    0.0199    0.7323 C   0  0  0  0  0  4           0  0  0
   -0.1225    1.3716    3.0300 C   0  0  0  0  0  4           0  0  0
   -0.3912    2.4829    2.2185 C   0  0  0  0  0  4           0  0  0
    0.3043    1.5821    4.3490 C   0  0  0  0  0  4           0  0  0
   -0.2282    3.7778    2.7141 C   0  0  0  0  0  4           0  0  0
    0.4675    2.8777    4.8423 C   0  0  0  0  0  4           0  0  0
    0.2010    3.9747    4.0251 C   0  0  0  0  0  4           0  0  0
   -3.6609   -1.3737    2.0415 C   0  0  0  0  0  4           0  0  0
   -0.3165   -0.0182    2.5059 C   0  0  0  0  0  4           0  0  0
    1.4870    0.0000    0.0000 C   0  0  0  0  0  4           0  0  0
   -3.2396    0.0279    1.7027 C   0  0  0  0  0  4           0  0  0
    2.0677    0.9977   -0.9977 C   0  0  0  0  0  4           0  0  0
    3.5956    1.0392   -1.0392 C   0  0  0  0  0  4           0  0  0
    4.2170    1.4182    0.2969 C   0  0  0  0  0  4           0  0  0
  1  6  1  0     0  0
  2 15  2  0     0  0
  3 15  1  0     0  0
  4  7  1  0     0  0
  4  8  1  0     0  0
  4 16  1  0     0  0
  5  6  1  0     0  0
  5  7  2  0     0  0
  6  8  2  0     0  0
  7 17  1  0     0  0
  8 18  1  0     0  0
  9 10  2  0     0  0
  9 11  1  0     0  0
  9 16  1  0     0  0
 10 12  1  0     0  0
 11 13  2  0     0  0
 12 14  2  0     0  0
 13 14  1  0     0  0
 15 18  1  0     0  0
 17 19  1  0     0  0
 19 20  1  0     0  0
 20 21  1  0     0  0
M  END
> <standard_type>
pIC50

> <# Confs.>
25

> <canonical_smiles>
CCCCC1=NC(Cl)=C(CC(O)=O)N1CC2=CC=CC=C2

> <standard_relation>
=

> <Publication_ID>
nan

> <predicted_activity_value>
5.0

> <actual_activity_value>
3.8239087409443187

> <Compound>
25

> <standard_units>
nM

> hash
1023660401049005096

$$$$
24
XXILIB    08252103513D 0   0.00000     0.00000

 21 22  0     1  0            999 V2000
   -3.3323   -0.0164   -1.7737 Cl  0  0  0  0  0  1           0  0  0
   -3.1894   -2.0263    2.9642 O   0  0  0  0  0  2           0  0  0
   -4.6356   -1.8422    1.2215 O   0  0  0  0  0  2           0  0  0
   -0.7894    0.0000    1.1322 N   0  0  0  0  0  3           0  0  0
   -0.7457   -0.0035   -1.0847 N   0  0  0  0  0  3           0  0  0
   -2.0471    0.0029   -0.6516 C   0  0  0  0  0  4           0  0  0
    0.0000    0.0000    0.0000 C   0  0  0  0  0  4           0  0  0
   -2.1161    0.0199    0.7323 C   0  0  0  0  0  4           0  0  0
   -0.1225    1.3716    3.0300 C   0  0  0  0  0  4           0  0  0
   -0.3912    2.4829    2.2185 C   0  0  0  0  0  4           0  0  0
    0.3043    1.5821    4.3490 C   0  0  0  0  0  4           0  0  0
   -0.2282    3.7778    2.7141 C   0  0  0  0  0  4           0  0  0
    0.4675    2.8777    4.8423 C   0  0  0  0  0  4           0  0  0
    0.2010    3.9747    4.0251 C   0  0  0  0  0  4           0  0  0
   -3.6609   -1.3737    2.0415 C   0  0  0  0  0  4           0  0  0
   -0.3165   -0.0182    2.5059 C   0  0  0  0  0  4           0  0  0
    1.4870    0.0000    0.0000 C   0  0  0  0  0  4           0  0  0
   -3.2396    0.0279    1.7027 C   0  0  0  0  0  4           0  0  0
    2.0677   -1.4109    0.0000 C   0  0  0  0  0  4           0  0  0
    3.5956   -1.4697    0.0000 C   0  0  0  0  0  4           0  0  0
    4.2170   -0.7929    1.2128 C   0  0  0  0  0  4           0  0  0
  1  6  1  0     0  0
  2 15  2  0     0  0
  3 15  1  0     0  0
  4  7  1  0     0  0
  4  8  1  0     0  0
  4 16  1  0     0  0
  5  6  1  0     0  0
  5  7  2  0     0  0
  6  8  2  0     0  0
  7 17  1  0     0  0
  8 18  1  0     0  0
  9 10  2  0     0  0
  9 11  1  0     0  0
  9 16  1  0     0  0
 10 12  1  0     0  0
 11 13  2  0     0  0
 12 14  2  0     0  0
 13 14  1  0     0  0
 15 18  1  0     0  0
 17 19  1  0     0  0
 19 20  1  0     0  0
 20 21  1  0     0  0
M  END
> <standard_type>
pIC50

> <# Confs.>
25

> <canonical_smiles>
CCCCC1=NC(Cl)=C(CC(O)=O)N1CC2=CC=CC=C2

> <standard_relation>
=

> <Publication_ID>
nan

> <predicted_activity_value>
5.0

> <actual_activity_value>
3.8239087409443187

> <Compound>
25

> <standard_units>
nM

> hash
1023660401049005096

$$$$
24
XXILIB    08252103513D 0   0.00000     0.00000

 21 22  0     1  0            999 V2000
   -3.3323   -0.0164   -1.7737 Cl  0  0  0  0  0  1           0  0  0
   -3.6351   -1.8419    3.1727 O   0  0  0  0  0  2           0  0  0
   -4.0894   -2.0700    0.9582 O   0  0  0  0  0  2           0  0  0
   -0.7894    0.0000    1.1322 N   0  0  0  0  0  3           0  0  0
   -0.7457   -0.0035   -1.0847 N   0  0  0  0  0  3           0  0  0
   -2.0471    0.0029   -0.6516 C   0  0  0  0  0  4           0  0  0
    0.0000    0.0000    0.0000 C   0  0  0  0  0  4           0  0  0
   -2.1161    0.0199    0.7323 C   0  0  0  0  0  4           0  0  0
   -0.1225    1.3716    3.0300 C   0  0  0  0  0  4           0  0  0
   -0.5823    1.7219    4.3073 C   0  0  0  0  0  4           0  0  0
    0.5464    2.3353    2.2619 C   0  0  0  0  0  4           0  0  0
   -0.3842    3.0121    4.8023 C   0  0  0  0  0  4           0  0  0
    0.7427    3.6252    2.7583 C   0  0  0  0  0  4           0  0  0
    0.2778    3.9629    4.0280 C   0  0  0  0  0  4           0  0  0
   -3.6609   -1.3737    2.0415 C   0  0  0  0  0  4           0  0  0
   -0.3165   -0.0182    2.5059 C   0  0  0  0  0  4           0  0  0
    1.4870    0.0000    0.0000 C   0  0  0  0  0  4           0  0  0
   -3.2396    0.0279    1.7027 C   0  0  0  0  0  4           0  0  0
    2.0677   -0.9977   -0.9977 C   0  0  0  0  0  4           0  0  0
    1.6668   -2.4521   -0.7490 C   0  0  0  0  0  4           0  0  0
    2.1050   -2.9652    0.6146 C   0  0  0  0  0  4           0  0  0
  1  6  1  0     0  0
  2 15  2  0     0  0
  3 15  1  0     0  0
  4  7  1  0     0  0
  4  8  1  0     0  0
  4 16  1  0     0  0
  5  6  1  0     0  0
  5  7  2  0     0  0
  6  8  2  0     0  0
  7 17  1  0     0  0
  8 18  1  0     0  0
  9 10  2  0     0  0
  9 11  1  0     0  0
  9 16  1  0     0  0
 10 12  1  0     0  0
 11 13  2  0     0  0
 12 14  2  0     0  0
 13 14  1  0     0  0
 15 18  1  0     0  0
 17 19  1  0     0  0
 19 20  1  0     0  0
 20 21  1  0     0  0
M  END
> <standard_type>
pIC50

> <# Confs.>
25

> <canonical_smiles>
CCCCC1=NC(Cl)=C(CC(O)=O)N1CC2=CC=CC=C2

> <standard_relation>
=

> <Publication_ID>
nan

> <predicted_activity_value>
5.0

> <actual_activity_value>
3.8239087409443187

> <Compound>
25

> <standard_units>
nM

> hash
1023660401049005096

$$$$
24
XXILIB    08252103513D 0   0.00000     0.00000

 21 22  0     1  0            999 V2000
   -3.3323   -0.0164   -1.7737 Cl  0  0  0  0  0  1           0  0  0
   -3.1364    2.0628    2.9917 O   0  0  0  0  0  2           0  0  0
   -4.5673    1.9492    1.2304 O   0  0  0  0  0  2           0  0  0
   -0.7894   -0.0000    1.1322 N   0  0  0  0  0  3           0  0  0
   -0.7457   -0.0035   -1.0847 N   0  0  0  0  0  3           0  0  0
   -2.0471    0.0029   -0.6516 C   0  0  0  0  0  4           0  0  0
    0.0000    0.0000   -0.0000 C   0  0  0  0  0  4           0  0  0
   -2.1161    0.0199    0.7323 C   0  0  0  0  0  4           0  0  0
   -0.1581   -1.4216    3.0052 C   0  0  0  0  0  4           0  0  0
    0.4614   -2.3953    2.2090 C   0  0  0  0  0  4           0  0  0
   -0.6023   -1.7758    4.2871 C   0  0  0  0  0  4           0  0  0
    0.6254   -3.6983    2.6827 C   0  0  0  0  0  4           0  0  0
   -0.4380   -3.0794    4.7587 C   0  0  0  0  0  4           0  0  0
    0.1758   -4.0397    3.9567 C   0  0  0  0  0  4           0  0  0
   -3.6245    1.4352    2.0604 C   0  0  0  0  0  4           0  0  0
   -0.3165   -0.0182    2.5059 C   0  0  0  0  0  4           0  0  0
    1.4870   -0.0000    0.0000 C   0  0  0  0  0  4           0  0  0
   -3.2396    0.0279    1.7027 C   0  0  0  0  0  4           0  0  0
    2.0677    0.9977   -0.9977 C   0  0  0  0  0  4           0  0  0
    1.6668    2.4521   -0.7490 C   0  0  0  0  0  4           0  0  0
    2.2647    3.4157   -1.7633 C   0  0  0  0  0  4           0  0  0
  1  6  1  0     0  0
  2 15  2  0     0  0
  3 15  1  0     0  0
  4  7  1  0     0  0
  4  8  1  0     0  0
  4 16  1  0     0  0
  5  6  1  0     0  0
  5  7  2  0     0  0
  6  8  2  0     0  0
  7 17  1  0     0  0
  8 18  1  0     0  0
  9 10  2  0     0  0
  9 11  1  0     0  0
  9 16  1  0     0  0
 10 12  1  0     0  0
 11 13  2  0     0  0
 12 14  2  0     0  0
 13 14  1  0     0  0
 15 18  1  0     0  0
 17 19  1  0     0  0
 19 20  1  0     0  0
 20 21  1  0     0  0
M  END
> <standard_type>
pIC50

> <# Confs.>
25

> <canonical_smiles>
CCCCC1=NC(Cl)=C(CC(O)=O)N1CC2=CC=CC=C2

> <standard_relation>
=

> <Publication_ID>
nan

> <predicted_activity_value>
5.0

> <actual_activity_value>
3.8239087409443187

> <Compound>
25

> <standard_units>
nM

> hash
1023660401049005096

$$$$
24
XXILIB    08252103513D 0   0.00000     0.00000

 21 22  0     1  0            999 V2000
   -3.3323   -0.0164   -1.7737 Cl  0  0  0  0  0  1           0  0  0
   -3.5868    1.8872    3.1978 O   0  0  0  0  0  2           0  0  0
   -4.0091    2.1649    0.9826 O   0  0  0  0  0  2           0  0  0
   -0.7894   -0.0000    1.1322 N   0  0  0  0  0  3           0  0  0
   -0.7457   -0.0035   -1.0847 N   0  0  0  0  0  3           0  0  0
   -2.0471    0.0029   -0.6516 C   0  0  0  0  0  4           0  0  0
    0.0000    0.0000   -0.0000 C   0  0  0  0  0  4           0  0  0
   -2.1161    0.0199    0.7323 C   0  0  0  0  0  4           0  0  0
   -0.1581   -1.4216    3.0052 C   0  0  0  0  0  4           0  0  0
   -0.4549   -2.5111    2.1741 C   0  0  0  0  0  4           0  0  0
    0.3157   -1.6669    4.3019 C   0  0  0  0  0  4           0  0  0
   -0.2889   -3.8188    2.6341 C   0  0  0  0  0  4           0  0  0
    0.4802   -2.9752    4.7602 C   0  0  0  0  0  4           0  0  0
    0.1782   -4.0502    3.9264 C   0  0  0  0  0  4           0  0  0
   -3.6245    1.4352    2.0604 C   0  0  0  0  0  4           0  0  0
   -0.3165   -0.0182    2.5059 C   0  0  0  0  0  4           0  0  0
    1.4870    0.0000    0.0000 C   0  0  0  0  0  4           0  0  0
   -3.2396    0.0279    1.7027 C   0  0  0  0  0  4           0  0  0
    2.0677   -1.4109    0.0000 C   0  0  0  0  0  4           0  0  0
    3.5956   -1.4697    0.0000 C   0  0  0  0  0  4           0  0  0
    4.1362   -2.8919    0.0000 C   0  0  0  0  0  4           0  0  0
  1  6  1  0     0  0
  2 15  2  0     0  0
  3 15  1  0     0  0
  4  7  1  0     0  0
  4  8  1  0     0  0
  4 16  1  0     0  0
  5  6  1  0     0  0
  5  7  2  0     0  0
  6  8  2  0     0  0
  7 17  1  0     0  0
  8 18  1  0     0  0
  9 10  2  0     0  0
  9 11  1  0     0  0
  9 16  1  0     0  0
 10 12  1  0     0  0
 11 13  2  0     0  0
 12 14  2  0     0  0
 13 14  1  0     0  0
 15 18  1  0     0  0
 17 19  1  0     0  0
 19 20  1  0     0  0
 20 21  1  0     0  0
M  END
> <standard_type>
pIC50

> <# Confs.>
25

> <canonical_smiles>
CCCCC1=NC(Cl)=C(CC(O)=O)N1CC2=CC=CC=C2

> <standard_relation>
=

> <Publication_ID>
nan

> <predicted_activity_value>
5.0

> <actual_activity_value>
3.8239087409443187

> <Compound>
25

> <standard_units>
nM

> hash
1023660401049005096

$$$$
24
XXILIB    08252103513D 0   0.00000     0.00000

 21 22  0     1  0            999 V2000
   -3.3323   -0.0164   -1.7737 Cl  0  0  0  0  0  1           0  0  0
   -3.6351   -1.8419    3.1727 O   0  0  0  0  0  2           0  0  0
   -4.0894   -2.0700    0.9582 O   0  0  0  0  0  2           0  0  0
   -0.7894    0.0000    1.1322 N   0  0  0  0  0  3           0  0  0
   -0.7457   -0.0035   -1.0847 N   0  0  0  0  0  3           0  0  0
   -2.0471    0.0029   -0.6516 C   0  0  0  0  0  4           0  0  0
    0.0000    0.0000    0.0000 C   0  0  0  0  0  4           0  0  0
   -2.1161    0.0199    0.7323 C   0  0  0  0  0  4           0  0  0
   -0.1225    1.3716    3.0300 C   0  0  0  0  0  4           0  0  0
   -0.5823    1.7219    4.3073 C   0  0  0  0  0  4           0  0  0
    0.5464    2.3353    2.2619 C   0  0  0  0  0  4           0  0  0
   -0.3842    3.0121    4.8023 C   0  0  0  0  0  4           0  0  0
    0.7427    3.6252    2.7583 C   0  0  0  0  0  4           0  0  0
    0.2778    3.9629    4.0280 C   0  0  0  0  0  4           0  0  0
   -3.6609   -1.3737    2.0415 C   0  0  0  0  0  4           0  0  0
   -0.3165   -0.0182    2.5059 C   0  0  0  0  0  4           0  0  0
    1.4870    0.0000    0.0000 C   0  0  0  0  0  4           0  0  0
   -3.2396    0.0279    1.7027 C   0  0  0  0  0  4           0  0  0
    2.0677    0.9977   -0.9977 C   0  0  0  0  0  4           0  0  0
    3.5956    1.0392   -1.0392 C   0  0  0  0  0  4           0  0  0
    4.1362    2.0449   -2.0449 C   0  0  0  0  0  4           0  0  0
  1  6  1  0     0  0
  2 15  2  0     0  0
  3 15  1  0     0  0
  4  7  1  0     0  0
  4  8  1  0     0  0
  4 16  1  0     0  0
  5  6  1  0     0  0
  5  7  2  0     0  0
  6  8  2  0     0  0
  7 17  1  0     0  0
  8 18  1  0     0  0
  9 10  2  0     0  0
  9 11  1  0     0  0
  9 16  1  0     0  0
 10 12  1  0     0  0
 11 13  2  0     0  0
 12 14  2  0     0  0
 13 14  1  0     0  0
 15 18  1  0     0  0
 17 19  1  0     0  0
 19 20  1  0     0  0
 20 21  1  0     0  0
M  END
> <standard_type>
pIC50

> <# Confs.>
25

> <canonical_smiles>
CCCCC1=NC(Cl)=C(CC(O)=O)N1CC2=CC=CC=C2

> <standard_relation>
=

> <Publication_ID>
nan

> <predicted_activity_value>
5.0

> <actual_activity_value>
3.8239087409443187

> <Compound>
25

> <standard_units>
nM

> hash
1023660401049005096

$$$$
24
XXILIB    08252103513D 0   0.00000     0.00000

 21 22  0     1  0            999 V2000
   -3.3323   -0.0164   -1.7737 Cl  0  0  0  0  0  1           0  0  0
   -3.5868    1.8872    3.1978 O   0  0  0  0  0  2           0  0  0
   -4.0091    2.1649    0.9826 O   0  0  0  0  0  2           0  0  0
   -0.7894   -0.0000    1.1322 N   0  0  0  0  0  3           0  0  0
   -0.7457   -0.0035   -1.0847 N   0  0  0  0  0  3           0  0  0
   -2.0471    0.0029   -0.6516 C   0  0  0  0  0  4           0  0  0
    0.0000    0.0000   -0.0000 C   0  0  0  0  0  4           0  0  0
   -2.1161    0.0199    0.7323 C   0  0  0  0  0  4           0  0  0
   -0.1581   -1.4216    3.0052 C   0  0  0  0  0  4           0  0  0
    0.4614   -2.3953    2.2090 C   0  0  0  0  0  4           0  0  0
   -0.6023   -1.7758    4.2871 C   0  0  0  0  0  4           0  0  0
    0.6254   -3.6983    2.6827 C   0  0  0  0  0  4           0  0  0
   -0.4380   -3.0794    4.7587 C   0  0  0  0  0  4           0  0  0
    0.1758   -4.0397    3.9567 C   0  0  0  0  0  4           0  0  0
   -3.6245    1.4352    2.0604 C   0  0  0  0  0  4           0  0  0
   -0.3165   -0.0182    2.5059 C   0  0  0  0  0  4           0  0  0
    1.4870   -0.0000    0.0000 C   0  0  0  0  0  4           0  0  0
   -3.2396    0.0279    1.7027 C   0  0  0  0  0  4           0  0  0
    2.0677    0.9977   -0.9977 C   0  0  0  0  0  4           0  0  0
    1.6668    2.4521   -0.7490 C   0  0  0  0  0  4           0  0  0
    2.1050    2.9652    0.6146 C   0  0  0  0  0  4           0  0  0
  1  6  1  0     0  0
  2 15  2  0     0  0
  3 15  1  0     0  0
  4  7  1  0     0  0
  4  8  1  0     0  0
  4 16  1  0     0  0
  5  6  1  0     0  0
  5  7  2  0     0  0
  6  8  2  0     0  0
  7 17  1  0     0  0
  8 18  1  0     0  0
  9 10  2  0     0  0
  9 11  1  0     0  0
  9 16  1  0     0  0
 10 12  1  0     0  0
 11 13  2  0     0  0
 12 14  2  0     0  0
 13 14  1  0     0  0
 15 18  1  0     0  0
 17 19  1  0     0  0
 19 20  1  0     0  0
 20 21  1  0     0  0
M  END
> <standard_type>
pIC50

> <# Confs.>
25

> <canonical_smiles>
CCCCC1=NC(Cl)=C(CC(O)=O)N1CC2=CC=CC=C2

> <standard_relation>
=

> <Publication_ID>
nan

> <predicted_activity_value>
5.0

> <actual_activity_value>
3.8239087409443187

> <Compound>
25

> <standard_units>
nM

> hash
1023660401049005096

$$$$
24
XXILIB    08252103513D 0   0.00000     0.00000

 21 22  0     1  0            999 V2000
   -3.3323   -0.0164   -1.7737 Cl  0  0  0  0  0  1           0  0  0
   -3.1894   -2.0263    2.9642 O   0  0  0  0  0  2           0  0  0
   -4.6356   -1.8422    1.2215 O   0  0  0  0  0  2           0  0  0
   -0.7894    0.0000    1.1322 N   0  0  0  0  0  3           0  0  0
   -0.7457   -0.0035   -1.0847 N   0  0  0  0  0  3           0  0  0
   -2.0471    0.0029   -0.6516 C   0  0  0  0  0  4           0  0  0
    0.0000    0.0000    0.0000 C   0  0  0  0  0  4           0  0  0
   -2.1161    0.0199    0.7323 C   0  0  0  0  0  4           0  0  0
   -0.1225    1.3716    3.0300 C   0  0  0  0  0  4           0  0  0
   -0.5823    1.7219    4.3073 C   0  0  0  0  0  4           0  0  0
    0.5464    2.3353    2.2619 C   0  0  0  0  0  4           0  0  0
   -0.3842    3.0121    4.8023 C   0  0  0  0  0  4           0  0  0
    0.7427    3.6252    2.7583 C   0  0  0  0  0  4           0  0  0
    0.2778    3.9629    4.0280 C   0  0  0  0  0  4           0  0  0
   -3.6609   -1.3737    2.0415 C   0  0  0  0  0  4           0  0  0
   -0.3165   -0.0182    2.5059 C   0  0  0  0  0  4           0  0  0
    1.4870    0.0000    0.0000 C   0  0  0  0  0  4           0  0  0
   -3.2396    0.0279    1.7027 C   0  0  0  0  0  4           0  0  0
    2.0677   -0.9977   -0.9977 C   0  0  0  0  0  4           0  0  0
    1.6668   -2.4521   -0.7490 C   0  0  0  0  0  4           0  0  0
    2.2647   -3.4157   -1.7633 C   0  0  0  0  0  4           0  0  0
  1  6  1  0     0  0
  2 15  2  0     0  0
  3 15  1  0     0  0
  4  7  1  0     0  0
  4  8  1  0     0  0
  4 16  1  0     0  0
  5  6  1  0     0  0
  5  7  2  0     0  0
  6  8  2  0     0  0
  7 17  1  0     0  0
  8 18  1  0     0  0
  9 10  2  0     0  0
  9 11  1  0     0  0
  9 16  1  0     0  0
 10 12  1  0     0  0
 11 13  2  0     0  0
 12 14  2  0     0  0
 13 14  1  0     0  0
 15 18  1  0     0  0
 17 19  1  0     0  0
 19 20  1  0     0  0
 20 21  1  0     0  0
M  END
> <standard_type>
pIC50

> <# Confs.>
25

> <canonical_smiles>
CCCCC1=NC(Cl)=C(CC(O)=O)N1CC2=CC=CC=C2

> <standard_relation>
=

> <Publication_ID>
nan

> <predicted_activity_value>
5.0

> <actual_activity_value>
3.8239087409443187

> <Compound>
25

> <standard_units>
nM

> hash
1023660401049005096

$$$$
24
XXILIB    08252103513D 0   0.00000     0.00000

 21 22  0     1  0            999 V2000
   -3.3323   -0.0164   -1.7737 Cl  0  0  0  0  0  1           0  0  0
   -3.6351   -1.8419    3.1727 O   0  0  0  0  0  2           0  0  0
   -4.0894   -2.0700    0.9582 O   0  0  0  0  0  2           0  0  0
   -0.7894    0.0000    1.1322 N   0  0  0  0  0  3           0  0  0
   -0.7457   -0.0035   -1.0847 N   0  0  0  0  0  3           0  0  0
   -2.0471    0.0029   -0.6516 C   0  0  0  0  0  4           0  0  0
    0.0000    0.0000    0.0000 C   0  0  0  0  0  4           0  0  0
   -2.1161    0.0199    0.7323 C   0  0  0  0  0  4           0  0  0
   -0.1225    1.3716    3.0300 C   0  0  0  0  0  4           0  0  0
   -0.5823    1.7219    4.3073 C   0  0  0  0  0  4           0  0  0
    0.5464    2.3353    2.2619 C   0  0  0  0  0  4           0  0  0
   -0.3842    3.0121    4.8023 C   0  0  0  0  0  4           0  0  0
    0.7427    3.6252    2.7583 C   0  0  0  0  0  4           0  0  0
    0.2778    3.9629    4.0280 C   0  0  0  0  0  4           0  0  0
   -3.6609   -1.3737    2.0415 C   0  0  0  0  0  4           0  0  0
   -0.3165   -0.0182    2.5059 C   0  0  0  0  0  4           0  0  0
    1.4870    0.0000    0.0000 C   0  0  0  0  0  4           0  0  0
   -3.2396    0.0279    1.7027 C   0  0  0  0  0  4           0  0  0
    2.0677   -0.9977   -0.9977 C   0  0  0  0  0  4           0  0  0
    3.5956   -1.0392   -1.0392 C   0  0  0  0  0  4           0  0  0
    4.2170    0.2969   -1.4182 C   0  0  0  0  0  4           0  0  0
  1  6  1  0     0  0
  2 15  2  0     0  0
  3 15  1  0     0  0
  4  7  1  0     0  0
  4  8  1  0     0  0
  4 16  1  0     0  0
  5  6  1  0     0  0
  5  7  2  0     0  0
  6  8  2  0     0  0
  7 17  1  0     0  0
  8 18  1  0     0  0
  9 10  2  0     0  0
  9 11  1  0     0  0
  9 16  1  0     0  0
 10 12  1  0     0  0
 11 13  2  0     0  0
 12 14  2  0     0  0
 13 14  1  0     0  0
 15 18  1  0     0  0
 17 19  1  0     0  0
 19 20  1  0     0  0
 20 21  1  0     0  0
M  END
> <standard_type>
pIC50

> <# Confs.>
25

> <canonical_smiles>
CCCCC1=NC(Cl)=C(CC(O)=O)N1CC2=CC=CC=C2

> <standard_relation>
=

> <Publication_ID>
nan

> <predicted_activity_value>
5.0

> <actual_activity_value>
3.8239087409443187

> <Compound>
25

> <standard_units>
nM

> hash
1023660401049005096

$$$$
24
XXILIB    08252103513D 0   0.00000     0.00000

 21 22  0     1  0            999 V2000
   -3.3323   -0.0164   -1.7737 Cl  0  0  0  0  0  1           0  0  0
   -3.1894   -2.0263    2.9642 O   0  0  0  0  0  2           0  0  0
   -4.6356   -1.8422    1.2215 O   0  0  0  0  0  2           0  0  0
   -0.7894    0.0000    1.1322 N   0  0  0  0  0  3           0  0  0
   -0.7457   -0.0035   -1.0847 N   0  0  0  0  0  3           0  0  0
   -2.0471    0.0029   -0.6516 C   0  0  0  0  0  4           0  0  0
    0.0000    0.0000    0.0000 C   0  0  0  0  0  4           0  0  0
   -2.1161    0.0199    0.7323 C   0  0  0  0  0  4           0  0  0
   -0.1225    1.3716    3.0300 C   0  0  0  0  0  4           0  0  0
   -0.5823    1.7219    4.3073 C   0  0  0  0  0  4           0  0  0
    0.5464    2.3353    2.2619 C   0  0  0  0  0  4           0  0  0
   -0.3842    3.0121    4.8023 C   0  0  0  0  0  4           0  0  0
    0.7427    3.6252    2.7583 C   0  0  0  0  0  4           0  0  0
    0.2778    3.9629    4.0280 C   0  0  0  0  0  4           0  0  0
   -3.6609   -1.3737    2.0415 C   0  0  0  0  0  4           0  0  0
   -0.3165   -0.0182    2.5059 C   0  0  0  0  0  4           0  0  0
    1.4870    0.0000    0.0000 C   0  0  0  0  0  4           0  0  0
   -3.2396    0.0279    1.7027 C   0  0  0  0  0  4           0  0  0
    2.0677   -0.9977   -0.9977 C   0  0  0  0  0  4           0  0  0
    3.5956   -1.0392   -1.0392 C   0  0  0  0  0  4           0  0  0
    4.1362   -2.0449   -2.0449 C   0  0  0  0  0  4           0  0  0
  1  6  1  0     0  0
  2 15  2  0     0  0
  3 15  1  0     0  0
  4  7  1  0     0  0
  4  8  1  0     0  0
  4 16  1  0     0  0
  5  6  1  0     0  0
  5  7  2  0     0  0
  6  8  2  0     0  0
  7 17  1  0     0  0
  8 18  1  0     0  0
  9 10  2  0     0  0
  9 11  1  0     0  0
  9 16  1  0     0  0
 10 12  1  0     0  0
 11 13  2  0     0  0
 12 14  2  0     0  0
 13 14  1  0     0  0
 15 18  1  0     0  0
 17 19  1  0     0  0
 19 20  1  0     0  0
 20 21  1  0     0  0
M  END
> <standard_type>
pIC50

> <# Confs.>
25

> <canonical_smiles>
CCCCC1=NC(Cl)=C(CC(O)=O)N1CC2=CC=CC=C2

> <standard_relation>
=

> <Publication_ID>
nan

> <predicted_activity_value>
5.0

> <actual_activity_value>
3.8239087409443187

> <Compound>
25

> <standard_units>
nM

> hash
1023660401049005096

$$$$
24
XXILIB    08252103513D 0   0.00000     0.00000

 21 22  0     1  0            999 V2000
   -3.3323   -0.0164   -1.7737 Cl  0  0  0  0  0  1           0  0  0
   -3.1364    2.0628    2.9917 O   0  0  0  0  0  2           0  0  0
   -4.5673    1.9492    1.2304 O   0  0  0  0  0  2           0  0  0
   -0.7894   -0.0000    1.1322 N   0  0  0  0  0  3           0  0  0
   -0.7457   -0.0035   -1.0847 N   0  0  0  0  0  3           0  0  0
   -2.0471    0.0029   -0.6516 C   0  0  0  0  0  4           0  0  0
    0.0000    0.0000   -0.0000 C   0  0  0  0  0  4           0  0  0
   -2.1161    0.0199    0.7323 C   0  0  0  0  0  4           0  0  0
   -0.1581   -1.4216    3.0052 C   0  0  0  0  0  4           0  0  0
   -0.4549   -2.5111    2.1741 C   0  0  0  0  0  4           0  0  0
    0.3157   -1.6669    4.3019 C   0  0  0  0  0  4           0  0  0
   -0.2889   -3.8188    2.6341 C   0  0  0  0  0  4           0  0  0
    0.4802   -2.9752    4.7602 C   0  0  0  0  0  4           0  0  0
    0.1782   -4.0502    3.9264 C   0  0  0  0  0  4           0  0  0
   -3.6245    1.4352    2.0604 C   0  0  0  0  0  4           0  0  0
   -0.3165   -0.0182    2.5059 C   0  0  0  0  0  4           0  0  0
    1.4870    0.0000    0.0000 C   0  0  0  0  0  4           0  0  0
   -3.2396    0.0279    1.7027 C   0  0  0  0  0  4           0  0  0
    2.0677    0.0000   -1.4109 C   0  0  0  0  0  4           0  0  0
    3.5956    0.0000   -1.4697 C   0  0  0  0  0  4           0  0  0
    4.2170   -1.2128   -0.7929 C   0  0  0  0  0  4           0  0  0
  1  6  1  0     0  0
  2 15  2  0     0  0
  3 15  1  0     0  0
  4  7  1  0     0  0
  4  8  1  0     0  0
  4 16  1  0     0  0
  5  6  1  0     0  0
  5  7  2  0     0  0
  6  8  2  0     0  0
  7 17  1  0     0  0
  8 18  1  0     0  0
  9 10  2  0     0  0
  9 11  1  0     0  0
  9 16  1  0     0  0
 10 12  1  0     0  0
 11 13  2  0     0  0
 12 14  2  0     0  0
 13 14  1  0     0  0
 15 18  1  0     0  0
 17 19  1  0     0  0
 19 20  1  0     0  0
 20 21  1  0     0  0
M  END
> <standard_type>
pIC50

> <# Confs.>
25

> <canonical_smiles>
CCCCC1=NC(Cl)=C(CC(O)=O)N1CC2=CC=CC=C2

> <standard_relation>
=

> <Publication_ID>
nan

> <predicted_activity_value>
5.0

> <actual_activity_value>
3.8239087409443187

> <Compound>
25

> <standard_units>
nM

> hash
1023660401049005096

$$$$
24
XXILIB    08252103513D 0   0.00000     0.00000

 21 22  0     1  0            999 V2000
   -3.3323   -0.0164   -1.7737 Cl  0  0  0  0  0  1           0  0  0
   -3.1364    2.0628    2.9917 O   0  0  0  0  0  2           0  0  0
   -4.5673    1.9492    1.2304 O   0  0  0  0  0  2           0  0  0
   -0.7894   -0.0000    1.1322 N   0  0  0  0  0  3           0  0  0
   -0.7457   -0.0035   -1.0847 N   0  0  0  0  0  3           0  0  0
   -2.0471    0.0029   -0.6516 C   0  0  0  0  0  4           0  0  0
    0.0000    0.0000   -0.0000 C   0  0  0  0  0  4           0  0  0
   -2.1161    0.0199    0.7323 C   0  0  0  0  0  4           0  0  0
   -0.1581   -1.4216    3.0052 C   0  0  0  0  0  4           0  0  0
    0.4614   -2.3953    2.2090 C   0  0  0  0  0  4           0  0  0
   -0.6023   -1.7758    4.2871 C   0  0  0  0  0  4           0  0  0
    0.6254   -3.6983    2.6827 C   0  0  0  0  0  4           0  0  0
   -0.4380   -3.0794    4.7587 C   0  0  0  0  0  4           0  0  0
    0.1758   -4.0397    3.9567 C   0  0  0  0  0  4           0  0  0
   -3.6245    1.4352    2.0604 C   0  0  0  0  0  4           0  0  0
   -0.3165   -0.0182    2.5059 C   0  0  0  0  0  4           0  0  0
    1.4870    0.0000    0.0000 C   0  0  0  0  0  4           0  0  0
   -3.2396    0.0279    1.7027 C   0  0  0  0  0  4           0  0  0
    2.0677    0.9977   -0.9977 C   0  0  0  0  0  4           0  0  0
    3.5956    1.0392   -1.0392 C   0  0  0  0  0  4           0  0  0
    4.2170    1.4182    0.2969 C   0  0  0  0  0  4           0  0  0
  1  6  1  0     0  0
  2 15  2  0     0  0
  3 15  1  0     0  0
  4  7  1  0     0  0
  4  8  1  0     0  0
  4 16  1  0     0  0
  5  6  1  0     0  0
  5  7  2  0     0  0
  6  8  2  0     0  0
  7 17  1  0     0  0
  8 18  1  0     0  0
  9 10  2  0     0  0
  9 11  1  0     0  0
  9 16  1  0     0  0
 10 12  1  0     0  0
 11 13  2  0     0  0
 12 14  2  0     0  0
 13 14  1  0     0  0
 15 18  1  0     0  0
 17 19  1  0     0  0
 19 20  1  0     0  0
 20 21  1  0     0  0
M  END
> <standard_type>
pIC50

> <# Confs.>
25

> <canonical_smiles>
CCCCC1=NC(Cl)=C(CC(O)=O)N1CC2=CC=CC=C2

> <standard_relation>
=

> <Publication_ID>
nan

> <predicted_activity_value>
5.0

> <actual_activity_value>
3.8239087409443187

> <Compound>
25

> <standard_units>
nM

> hash
1023660401049005096

$$$$
24
XXILIB    08252103513D 0   0.00000     0.00000

 21 22  0     1  0            999 V2000
   -3.3323   -0.0164   -1.7737 Cl  0  0  0  0  0  1           0  0  0
   -3.1364    2.0628    2.9917 O   0  0  0  0  0  2           0  0  0
   -4.5673    1.9492    1.2304 O   0  0  0  0  0  2           0  0  0
   -0.7894   -0.0000    1.1322 N   0  0  0  0  0  3           0  0  0
   -0.7457   -0.0035   -1.0847 N   0  0  0  0  0  3           0  0  0
   -2.0471    0.0029   -0.6516 C   0  0  0  0  0  4           0  0  0
    0.0000    0.0000   -0.0000 C   0  0  0  0  0  4           0  0  0
   -2.1161    0.0199    0.7323 C   0  0  0  0  0  4           0  0  0
   -0.1581   -1.4216    3.0052 C   0  0  0  0  0  4           0  0  0
    0.4614   -2.3953    2.2090 C   0  0  0  0  0  4           0  0  0
   -0.6023   -1.7758    4.2871 C   0  0  0  0  0  4           0  0  0
    0.6254   -3.6983    2.6827 C   0  0  0  0  0  4           0  0  0
   -0.4380   -3.0794    4.7587 C   0  0  0  0  0  4           0  0  0
    0.1758   -4.0397    3.9567 C   0  0  0  0  0  4           0  0  0
   -3.6245    1.4352    2.0604 C   0  0  0  0  0  4           0  0  0
   -0.3165   -0.0182    2.5059 C   0  0  0  0  0  4           0  0  0
    1.4870    0.0000    0.0000 C   0  0  0  0  0  4           0  0  0
   -3.2396    0.0279    1.7027 C   0  0  0  0  0  4           0  0  0
    2.0677   -0.9977   -0.9977 C   0  0  0  0  0  4           0  0  0
    3.5956   -1.0392   -1.0392 C   0  0  0  0  0  4           0  0  0
    4.2170   -1.4182    0.2969 C   0  0  0  0  0  4           0  0  0
  1  6  1  0     0  0
  2 15  2  0     0  0
  3 15  1  0     0  0
  4  7  1  0     0  0
  4  8  1  0     0  0
  4 16  1  0     0  0
  5  6  1  0     0  0
  5  7  2  0     0  0
  6  8  2  0     0  0
  7 17  1  0     0  0
  8 18  1  0     0  0
  9 10  2  0     0  0
  9 11  1  0     0  0
  9 16  1  0     0  0
 10 12  1  0     0  0
 11 13  2  0     0  0
 12 14  2  0     0  0
 13 14  1  0     0  0
 15 18  1  0     0  0
 17 19  1  0     0  0
 19 20  1  0     0  0
 20 21  1  0     0  0
M  END
> <standard_type>
pIC50

> <# Confs.>
25

> <canonical_smiles>
CCCCC1=NC(Cl)=C(CC(O)=O)N1CC2=CC=CC=C2

> <standard_relation>
=

> <Publication_ID>
nan

> <predicted_activity_value>
5.0

> <actual_activity_value>
3.8239087409443187

> <Compound>
25

> <standard_units>
nM

> hash
1023660401049005096

$$$$
24
XXILIB    08252103513D 0   0.00000     0.00000

 21 22  0     1  0            999 V2000
   -3.3323   -0.0164   -1.7737 Cl  0  0  0  0  0  1           0  0  0
   -2.8638    2.2421    2.5798 O   0  0  0  0  0  2           0  0  0
   -4.9091    1.7277    1.7341 O   0  0  0  0  0  2           0  0  0
   -0.7894   -0.0000    1.1322 N   0  0  0  0  0  3           0  0  0
   -0.7457   -0.0035   -1.0847 N   0  0  0  0  0  3           0  0  0
   -2.0471    0.0029   -0.6516 C   0  0  0  0  0  4           0  0  0
    0.0000    0.0000   -0.0000 C   0  0  0  0  0  4           0  0  0
   -2.1161    0.0199    0.7323 C   0  0  0  0  0  4           0  0  0
   -0.1581   -1.4216    3.0052 C   0  0  0  0  0  4           0  0  0
   -0.4549   -2.5111    2.1741 C   0  0  0  0  0  4           0  0  0
    0.3157   -1.6669    4.3019 C   0  0  0  0  0  4           0  0  0
   -0.2889   -3.8188    2.6341 C   0  0  0  0  0  4           0  0  0
    0.4802   -2.9752    4.7602 C   0  0  0  0  0  4           0  0  0
    0.1782   -4.0502    3.9264 C   0  0  0  0  0  4           0  0  0
   -3.6245    1.4352    2.0604 C   0  0  0  0  0  4           0  0  0
   -0.3165   -0.0182    2.5059 C   0  0  0  0  0  4           0  0  0
    1.4870   -0.0000   -0.0000 C   0  0  0  0  0  4           0  0  0
   -3.2396    0.0279    1.7027 C   0  0  0  0  0  4           0  0  0
    2.0677    1.4109    0.0000 C   0  0  0  0  0  4           0  0  0
    1.6668    2.2635   -1.2042 C   0  0  0  0  0  4           0  0  0
    2.1050    1.6621   -2.5313 C   0  0  0  0  0  4           0  0  0
  1  6  1  0     0  0
  2 15  2  0     0  0
  3 15  1  0     0  0
  4  7  1  0     0  0
  4  8  1  0     0  0
  4 16  1  0     0  0
  5  6  1  0     0  0
  5  7  2  0     0  0
  6  8  2  0     0  0
  7 17  1  0     0  0
  8 18  1  0     0  0
  9 10  2  0     0  0
  9 11  1  0     0  0
  9 16  1  0     0  0
 10 12  1  0     0  0
 11 13  2  0     0  0
 12 14  2  0     0  0
 13 14  1  0     0  0
 15 18  1  0     0  0
 17 19  1  0     0  0
 19 20  1  0     0  0
 20 21  1  0     0  0
M  END
> <standard_type>
pIC50

> <# Confs.>
25

> <canonical_smiles>
CCCCC1=NC(Cl)=C(CC(O)=O)N1CC2=CC=CC=C2

> <standard_relation>
=

> <Publication_ID>
nan

> <predicted_activity_value>
5.0

> <actual_activity_value>
3.8239087409443187

> <Compound>
25

> <standard_units>
nM

> hash
1023660401049005096

$$$$
17
XXILIB    08252103513D 0   0.00000     0.00000

 31 33  0     1  0            999 V2000
   -3.5602    0.0114   -1.4766 Cl  0  0  0  0  0  1           0  0  0
    3.8813   -5.2594   -3.2277 O   0  0  0  0  0  2           0  0  0
    0.5099   -0.6441   -5.0094 O   0  0  0  0  0  2           0  0  0
   -0.2086   -1.3273   -2.9248 O   0  0  0  0  0  2           0  0  0
    1.7942   -5.9307   -2.6490 O   0  0  0  0  0  2           0  0  0
    0.0000   -0.0000    0.0000 N   0  0  0  0  0  3           0  0  0
   -2.0836    0.0005    0.7718 N   0  0  0  0  0  3           0  0  0
   -2.0993    0.0105   -0.5980 C   0  0  0  0  0  4           0  0  0
   -0.8119    0.0000    1.1177 C   0  0  0  0  0  4           0  0  0
   -0.8166    0.0194   -1.1139 C   0  0  0  0  0  4           0  0  0
    3.5746   -5.3906    0.0336 C   0  0  0  0  0  4           0  0  0
    3.0352   -4.0248    0.0233 C   0  0  0  0  0  4           0  0  0
    3.5707   -6.2411   -1.0943 C   0  0  0  0  0  4           0  0  0
    1.9918   -1.3967    0.0000 C   0  0  0  0  0  4           0  0  0
    4.1048   -5.9112    1.2317 C   0  0  0  0  0  4           0  0  0
    3.5583   -3.0527   -0.8424 C   0  0  0  0  0  4           0  0  0
    1.9858   -3.6616    0.8803 C   0  0  0  0  0  4           0  0  0
    4.0698   -7.5511   -1.0168 C   0  0  0  0  0  4           0  0  0
    3.0442   -1.7530   -0.8522 C   0  0  0  0  0  4           0  0  0
    1.4716   -2.3619    0.8708 C   0  0  0  0  0  4           0  0  0
    4.5992   -7.2159    1.3077 C   0  0  0  0  0  4           0  0  0
    4.5781   -8.0358    0.1851 C   0  0  0  0  0  4           0  0  0
    3.1176   -5.7641   -2.4172 C   0  0  0  0  0  4           0  0  0
    0.2262   -1.5178   -4.2007 C   0  0  0  0  0  4           0  0  0
   -0.3373    0.0390   -2.5151 C   0  0  0  0  0  4           0  0  0
    1.4497    0.0000   -0.0000 C   0  0  0  0  0  4           0  0  0
   -0.3193   -0.0056    2.5204 C   0  0  0  0  0  4           0  0  0
   -1.0721   -1.0028    3.3951 C   0  0  0  0  0  4           0  0  0
   -0.5726   -1.0153    4.8377 C   0  0  0  0  0  4           0  0  0
    0.3445   -2.9856   -4.4804 C   0  0  0  0  0  4           0  0  0
   -1.3414   -2.0175    5.6828 C   0  0  0  0  0  4           0  0  0
  1  8  1  0     0  0
  2 23  2  0     0  0
  3 24  2  0     0  0
  4 24  1  0     0  0
  4 25  1  0     0  0
  5 23  1  0     0  0
  6  9  1  0     0  0
  6 10  1  0     0  0
  6 26  1  0     0  0
  7  8  1  0     0  0
  7  9  2  0     0  0
  8 10  2  0     0  0
  9 27  1  0     0  0
 10 25  1  0     0  0
 11 12  1  0     0  0
 11 13  1  0     0  0
 11 15  2  0     0  0
 12 16  2  0     0  0
 12 17  1  0     0  0
 13 18  2  0     0  0
 13 23  1  0     0  0
 14 19  2  0     0  0
 14 20  1  0     0  0
 14 26  1  0     0  0
 15 21  1  0     0  0
 16 19  1  0     0  0
 17 20  2  0     0  0
 18 22  1  0     0  0
 21 22  2  0     0  0
 24 30  1  0     0  0
 27 28  1  0     0  0
 28 29  1  0     0  0
 29 31  1  0     0  0
M  END
> <standard_type>
pIC50

> <# Confs.>
25

> <canonical_smiles>
CCCCC1=NC(Cl)=C(COC(C)=O)N1CC2=CC=C(C3=CC=CC=C3C(O)=O)C=C2

> <standard_relation>
=

> <Publication_ID>
nan

> <predicted_activity_value>
6.920818753952375

> <actual_activity_value>
5.47755576649368

> <Compound>
18

> <standard_units>
nM

> hash
17930109462890095984

$$$$
17
XXILIB    08252103513D 0   0.00000     0.00000

 31 33  0     1  0            999 V2000
   -3.5602    0.0114   -1.4766 Cl  0  0  0  0  0  1           0  0  0
    1.3025    6.0466   -2.3445 O   0  0  0  0  0  2           0  0  0
    0.5144    0.7915   -4.9878 O   0  0  0  0  0  2           0  0  0
   -0.1999    1.4161   -2.8834 O   0  0  0  0  0  2           0  0  0
    0.4705    6.5917   -0.3067 O   0  0  0  0  0  2           0  0  0
    0.0000   -0.0000    0.0000 N   0  0  0  0  0  3           0  0  0
   -2.0836    0.0005    0.7718 N   0  0  0  0  0  3           0  0  0
   -2.0993    0.0105   -0.5980 C   0  0  0  0  0  4           0  0  0
   -0.8119    0.0000    1.1177 C   0  0  0  0  0  4           0  0  0
   -0.8166    0.0194   -1.1139 C   0  0  0  0  0  4           0  0  0
    3.5038    5.4181    0.0021 C   0  0  0  0  0  4           0  0  0
    2.9850    4.0443    0.0010 C   0  0  0  0  0  4           0  0  0
    2.8325    6.5077   -0.5957 C   0  0  0  0  0  4           0  0  0
    1.9918    1.3967    0.0000 C   0  0  0  0  0  4           0  0  0
    4.7517    5.6810    0.6032 C   0  0  0  0  0  4           0  0  0
    2.7429    3.3692   -1.2047 C   0  0  0  0  0  4           0  0  0
    2.7185    3.3772    1.2058 C   0  0  0  0  0  4           0  0  0
    3.3932    7.7949   -0.5935 C   0  0  0  0  0  4           0  0  0
    2.2497    2.0614   -1.2052 C   0  0  0  0  0  4           0  0  0
    2.2251    2.0695    1.2056 C   0  0  0  0  0  4           0  0  0
    5.3093    6.9622    0.6028 C   0  0  0  0  0  4           0  0  0
    4.6320    8.0170    0.0016 C   0  0  0  0  0  4           0  0  0
    1.4819    6.3563   -1.1754 C   0  0  0  0  0  4           0  0  0
    0.2361    1.6422   -4.1531 C   0  0  0  0  0  4           0  0  0
   -0.3373    0.0390   -2.5151 C   0  0  0  0  0  4           0  0  0
    1.4497   -0.0000   -0.0000 C   0  0  0  0  0  4           0  0  0
   -0.3193   -0.0056    2.5204 C   0  0  0  0  0  4           0  0  0
   -1.0721   -1.0028    3.3951 C   0  0  0  0  0  4           0  0  0
   -0.5726   -1.0153    4.8377 C   0  0  0  0  0  4           0  0  0
    0.3013    3.1175   -4.4098 C   0  0  0  0  0  4           0  0  0
   -1.3414   -2.0175    5.6828 C   0  0  0  0  0  4           0  0  0
  1  8  1  0     0  0
  2 23  2  0     0  0
  3 24  2  0     0  0
  4 24  1  0     0  0
  4 25  1  0     0  0
  5 23  1  0     0  0
  6  9  1  0     0  0
  6 10  1  0     0  0
  6 26  1  0     0  0
  7  8  1  0     0  0
  7  9  2  0     0  0
  8 10  2  0     0  0
  9 27  1  0     0  0
 10 25  1  0     0  0
 11 12  1  0     0  0
 11 13  1  0     0  0
 11 15  2  0     0  0
 12 16  2  0     0  0
 12 17  1  0     0  0
 13 18  2  0     0  0
 13 23  1  0     0  0
 14 19  2  0     0  0
 14 20  1  0     0  0
 14 26  1  0     0  0
 15 21  1  0     0  0
 16 19  1  0     0  0
 17 20  2  0     0  0
 18 22  1  0     0  0
 21 22  2  0     0  0
 24 30  1  0     0  0
 27 28  1  0     0  0
 28 29  1  0     0  0
 29 31  1  0     0  0
M  END
> <standard_type>
pIC50

> <# Confs.>
25

> <canonical_smiles>
CCCCC1=NC(Cl)=C(COC(C)=O)N1CC2=CC=C(C3=CC=CC=C3C(O)=O)C=C2

> <standard_relation>
=

> <Publication_ID>
nan

> <predicted_activity_value>
6.920818753952375

> <actual_activity_value>
5.47755576649368

> <Compound>
18

> <standard_units>
nM

> hash
17930109462890095984

$$$$
17
XXILIB    08252103513D 0   0.00000     0.00000

 31 33  0     1  0            999 V2000
   -3.5602    0.0114   -1.4766 Cl  0  0  0  0  0  1           0  0  0
    1.3025    6.0466   -2.3445 O   0  0  0  0  0  2           0  0  0
    0.5144    0.7915   -4.9878 O   0  0  0  0  0  2           0  0  0
   -0.1999    1.4161   -2.8834 O   0  0  0  0  0  2           0  0  0
    0.4705    6.5917   -0.3067 O   0  0  0  0  0  2           0  0  0
    0.0000   -0.0000    0.0000 N   0  0  0  0  0  3           0  0  0
   -2.0836    0.0005    0.7718 N   0  0  0  0  0  3           0  0  0
   -2.0993    0.0105   -0.5980 C   0  0  0  0  0  4           0  0  0
   -0.8119    0.0000    1.1177 C   0  0  0  0  0  4           0  0  0
   -0.8166    0.0194   -1.1139 C   0  0  0  0  0  4           0  0  0
    3.5038    5.4181    0.0021 C   0  0  0  0  0  4           0  0  0
    2.9850    4.0443    0.0010 C   0  0  0  0  0  4           0  0  0
    2.8325    6.5077   -0.5957 C   0  0  0  0  0  4           0  0  0
    1.9918    1.3967    0.0000 C   0  0  0  0  0  4           0  0  0
    4.7517    5.6810    0.6032 C   0  0  0  0  0  4           0  0  0
    2.7429    3.3692   -1.2047 C   0  0  0  0  0  4           0  0  0
    2.7185    3.3772    1.2058 C   0  0  0  0  0  4           0  0  0
    3.3932    7.7949   -0.5935 C   0  0  0  0  0  4           0  0  0
    2.2497    2.0614   -1.2052 C   0  0  0  0  0  4           0  0  0
    2.2251    2.0695    1.2056 C   0  0  0  0  0  4           0  0  0
    5.3093    6.9622    0.6028 C   0  0  0  0  0  4           0  0  0
    4.6320    8.0170    0.0016 C   0  0  0  0  0  4           0  0  0
    1.4819    6.3563   -1.1754 C   0  0  0  0  0  4           0  0  0
    0.2361    1.6422   -4.1531 C   0  0  0  0  0  4           0  0  0
   -0.3373    0.0390   -2.5151 C   0  0  0  0  0  4           0  0  0
    1.4497   -0.0000   -0.0000 C   0  0  0  0  0  4           0  0  0
   -0.3193   -0.0056    2.5204 C   0  0  0  0  0  4           0  0  0
   -1.0721   -1.0028    3.3951 C   0  0  0  0  0  4           0  0  0
   -0.9474   -2.4389    2.8925 C   0  0  0  0  0  4           0  0  0
    0.3013    3.1175   -4.4098 C   0  0  0  0  0  4           0  0  0
   -1.7072   -3.4071    3.7839 C   0  0  0  0  0  4           0  0  0
  1  8  1  0     0  0
  2 23  2  0     0  0
  3 24  2  0     0  0
  4 24  1  0     0  0
  4 25  1  0     0  0
  5 23  1  0     0  0
  6  9  1  0     0  0
  6 10  1  0     0  0
  6 26  1  0     0  0
  7  8  1  0     0  0
  7  9  2  0     0  0
  8 10  2  0     0  0
  9 27  1  0     0  0
 10 25  1  0     0  0
 11 12  1  0     0  0
 11 13  1  0     0  0
 11 15  2  0     0  0
 12 16  2  0     0  0
 12 17  1  0     0  0
 13 18  2  0     0  0
 13 23  1  0     0  0
 14 19  2  0     0  0
 14 20  1  0     0  0
 14 26  1  0     0  0
 15 21  1  0     0  0
 16 19  1  0     0  0
 17 20  2  0     0  0
 18 22  1  0     0  0
 21 22  2  0     0  0
 24 30  1  0     0  0
 27 28  1  0     0  0
 28 29  1  0     0  0
 29 31  1  0     0  0
M  END
> <standard_type>
pIC50

> <# Confs.>
25

> <canonical_smiles>
CCCCC1=NC(Cl)=C(COC(C)=O)N1CC2=CC=C(C3=CC=CC=C3C(O)=O)C=C2

> <standard_relation>
=

> <Publication_ID>
nan

> <predicted_activity_value>
6.920818753952375

> <actual_activity_value>
5.47755576649368

> <Compound>
18

> <standard_units>
nM

> hash
17930109462890095984

$$$$
17
XXILIB    08252103513D 0   0.00000     0.00000

 31 33  0     1  0            999 V2000
   -3.5602    0.0114   -1.4766 Cl  0  0  0  0  0  1           0  0  0
    3.8813   -5.2594   -3.2277 O   0  0  0  0  0  2           0  0  0
    0.5099   -0.6441   -5.0094 O   0  0  0  0  0  2           0  0  0
   -0.2086   -1.3273   -2.9248 O   0  0  0  0  0  2           0  0  0
    1.7942   -5.9307   -2.6490 O   0  0  0  0  0  2           0  0  0
    0.0000   -0.0000    0.0000 N   0  0  0  0  0  3           0  0  0
   -2.0836    0.0005    0.7718 N   0  0  0  0  0  3           0  0  0
   -2.0993    0.0105   -0.5980 C   0  0  0  0  0  4           0  0  0
   -0.8119    0.0000    1.1177 C   0  0  0  0  0  4           0  0  0
   -0.8166    0.0194   -1.1139 C   0  0  0  0  0  4           0  0  0
    3.5746   -5.3906    0.0336 C   0  0  0  0  0  4           0  0  0
    3.0352   -4.0248    0.0233 C   0  0  0  0  0  4           0  0  0
    3.5707   -6.2411   -1.0943 C   0  0  0  0  0  4           0  0  0
    1.9918   -1.3967    0.0000 C   0  0  0  0  0  4           0  0  0
    4.1048   -5.9112    1.2317 C   0  0  0  0  0  4           0  0  0
    3.5583   -3.0527   -0.8424 C   0  0  0  0  0  4           0  0  0
    1.9858   -3.6616    0.8803 C   0  0  0  0  0  4           0  0  0
    4.0698   -7.5511   -1.0168 C   0  0  0  0  0  4           0  0  0
    3.0442   -1.7530   -0.8522 C   0  0  0  0  0  4           0  0  0
    1.4716   -2.3619    0.8708 C   0  0  0  0  0  4           0  0  0
    4.5992   -7.2159    1.3077 C   0  0  0  0  0  4           0  0  0
    4.5781   -8.0358    0.1851 C   0  0  0  0  0  4           0  0  0
    3.1176   -5.7641   -2.4172 C   0  0  0  0  0  4           0  0  0
    0.2262   -1.5178   -4.2007 C   0  0  0  0  0  4           0  0  0
   -0.3373    0.0390   -2.5151 C   0  0  0  0  0  4           0  0  0
    1.4497    0.0000   -0.0000 C   0  0  0  0  0  4           0  0  0
   -0.3193   -0.0056    2.5204 C   0  0  0  0  0  4           0  0  0
   -1.0646    0.9923    3.4005 C   0  0  0  0  0  4           0  0  0
   -0.5651    0.9933    4.8432 C   0  0  0  0  0  4           0  0  0
    0.3445   -2.9856   -4.4804 C   0  0  0  0  0  4           0  0  0
   -1.3264    1.9966    5.6937 C   0  0  0  0  0  4           0  0  0
  1  8  1  0     0  0
  2 23  2  0     0  0
  3 24  2  0     0  0
  4 24  1  0     0  0
  4 25  1  0     0  0
  5 23  1  0     0  0
  6  9  1  0     0  0
  6 10  1  0     0  0
  6 26  1  0     0  0
  7  8  1  0     0  0
  7  9  2  0     0  0
  8 10  2  0     0  0
  9 27  1  0     0  0
 10 25  1  0     0  0
 11 12  1  0     0  0
 11 13  1  0     0  0
 11 15  2  0     0  0
 12 16  2  0     0  0
 12 17  1  0     0  0
 13 18  2  0     0  0
 13 23  1  0     0  0
 14 19  2  0     0  0
 14 20  1  0     0  0
 14 26  1  0     0  0
 15 21  1  0     0  0
 16 19  1  0     0  0
 17 20  2  0     0  0
 18 22  1  0     0  0
 21 22  2  0     0  0
 24 30  1  0     0  0
 27 28  1  0     0  0
 28 29  1  0     0  0
 29 31  1  0     0  0
M  END
> <standard_type>
pIC50

> <# Confs.>
25

> <canonical_smiles>
CCCCC1=NC(Cl)=C(COC(C)=O)N1CC2=CC=C(C3=CC=CC=C3C(O)=O)C=C2

> <standard_relation>
=

> <Publication_ID>
nan

> <predicted_activity_value>
6.920818753952375

> <actual_activity_value>
5.47755576649368

> <Compound>
18

> <standard_units>
nM

> hash
17930109462890095984

$$$$
17
XXILIB    08252103513D 0   0.00000     0.00000

 31 33  0     1  0            999 V2000
   -3.5602    0.0114   -1.4766 Cl  0  0  0  0  0  1           0  0  0
    3.8813   -5.2594   -3.2277 O   0  0  0  0  0  2           0  0  0
    0.5099   -0.6441   -5.0094 O   0  0  0  0  0  2           0  0  0
   -0.2086   -1.3273   -2.9248 O   0  0  0  0  0  2           0  0  0
    1.7942   -5.9307   -2.6490 O   0  0  0  0  0  2           0  0  0
    0.0000   -0.0000    0.0000 N   0  0  0  0  0  3           0  0  0
   -2.0836    0.0005    0.7718 N   0  0  0  0  0  3           0  0  0
   -2.0993    0.0105   -0.5980 C   0  0  0  0  0  4           0  0  0
   -0.8119    0.0000    1.1177 C   0  0  0  0  0  4           0  0  0
   -0.8166    0.0194   -1.1139 C   0  0  0  0  0  4           0  0  0
    3.5746   -5.3906    0.0336 C   0  0  0  0  0  4           0  0  0
    3.0352   -4.0248    0.0233 C   0  0  0  0  0  4           0  0  0
    3.5707   -6.2411   -1.0943 C   0  0  0  0  0  4           0  0  0
    1.9918   -1.3967    0.0000 C   0  0  0  0  0  4           0  0  0
    4.1048   -5.9112    1.2317 C   0  0  0  0  0  4           0  0  0
    3.5583   -3.0527   -0.8424 C   0  0  0  0  0  4           0  0  0
    1.9858   -3.6616    0.8803 C   0  0  0  0  0  4           0  0  0
    4.0698   -7.5511   -1.0168 C   0  0  0  0  0  4           0  0  0
    3.0442   -1.7530   -0.8522 C   0  0  0  0  0  4           0  0  0
    1.4716   -2.3619    0.8708 C   0  0  0  0  0  4           0  0  0
    4.5992   -7.2159    1.3077 C   0  0  0  0  0  4           0  0  0
    4.5781   -8.0358    0.1851 C   0  0  0  0  0  4           0  0  0
    3.1176   -5.7641   -2.4172 C   0  0  0  0  0  4           0  0  0
    0.2262   -1.5178   -4.2007 C   0  0  0  0  0  4           0  0  0
   -0.3373    0.0390   -2.5151 C   0  0  0  0  0  4           0  0  0
    1.4497    0.0000   -0.0000 C   0  0  0  0  0  4           0  0  0
   -0.3193   -0.0056    2.5204 C   0  0  0  0  0  4           0  0  0
   -1.0646    0.9923    3.4005 C   0  0  0  0  0  4           0  0  0
   -0.9293    2.4302    2.9057 C   0  0  0  0  0  4           0  0  0
    0.3445   -2.9856   -4.4804 C   0  0  0  0  0  4           0  0  0
   -1.6819    3.3992    3.8024 C   0  0  0  0  0  4           0  0  0
  1  8  1  0     0  0
  2 23  2  0     0  0
  3 24  2  0     0  0
  4 24  1  0     0  0
  4 25  1  0     0  0
  5 23  1  0     0  0
  6  9  1  0     0  0
  6 10  1  0     0  0
  6 26  1  0     0  0
  7  8  1  0     0  0
  7  9  2  0     0  0
  8 10  2  0     0  0
  9 27  1  0     0  0
 10 25  1  0     0  0
 11 12  1  0     0  0
 11 13  1  0     0  0
 11 15  2  0     0  0
 12 16  2  0     0  0
 12 17  1  0     0  0
 13 18  2  0     0  0
 13 23  1  0     0  0
 14 19  2  0     0  0
 14 20  1  0     0  0
 14 26  1  0     0  0
 15 21  1  0     0  0
 16 19  1  0     0  0
 17 20  2  0     0  0
 18 22  1  0     0  0
 21 22  2  0     0  0
 24 30  1  0     0  0
 27 28  1  0     0  0
 28 29  1  0     0  0
 29 31  1  0     0  0
M  END
> <standard_type>
pIC50

> <# Confs.>
25

> <canonical_smiles>
CCCCC1=NC(Cl)=C(COC(C)=O)N1CC2=CC=C(C3=CC=CC=C3C(O)=O)C=C2

> <standard_relation>
=

> <Publication_ID>
nan

> <predicted_activity_value>
6.920818753952375

> <actual_activity_value>
5.47755576649368

> <Compound>
18

> <standard_units>
nM

> hash
17930109462890095984

$$$$
17
XXILIB    08252103513D 0   0.00000     0.00000

 31 33  0     1  0            999 V2000
   -3.5602    0.0114   -1.4766 Cl  0  0  0  0  0  1           0  0  0
    5.4297    4.6585   -2.5398 O   0  0  0  0  0  2           0  0  0
    0.5144    0.7915   -4.9878 O   0  0  0  0  0  2           0  0  0
   -0.1999    1.4161   -2.8834 O   0  0  0  0  0  2           0  0  0
    6.4442    4.1261   -0.5829 O   0  0  0  0  0  2           0  0  0
    0.0000   -0.0000    0.0000 N   0  0  0  0  0  3           0  0  0
   -2.0836    0.0005    0.7718 N   0  0  0  0  0  3           0  0  0
   -2.0993    0.0105   -0.5980 C   0  0  0  0  0  4           0  0  0
   -0.8119    0.0000    1.1177 C   0  0  0  0  0  4           0  0  0
   -0.8166    0.0194   -1.1139 C   0  0  0  0  0  4           0  0  0
    3.5038    5.4181    0.0021 C   0  0  0  0  0  4           0  0  0
    2.9850    4.0443    0.0010 C   0  0  0  0  0  4           0  0  0
    4.7388    5.7878   -0.5753 C   0  0  0  0  0  4           0  0  0
    1.9918    1.3967    0.0000 C   0  0  0  0  0  4           0  0  0
    2.7573    6.4341    0.6330 C   0  0  0  0  0  4           0  0  0
    2.7429    3.3692   -1.2047 C   0  0  0  0  0  4           0  0  0
    2.7185    3.3772    1.2058 C   0  0  0  0  0  4           0  0  0
    5.2007    7.1123   -0.5143 C   0  0  0  0  0  4           0  0  0
    2.2497    2.0614   -1.2052 C   0  0  0  0  0  4           0  0  0
    2.2251    2.0695    1.2056 C   0  0  0  0  0  4           0  0  0
    3.2193    7.7514    0.6946 C   0  0  0  0  0  4           0  0  0
    4.4416    8.0888    0.1245 C   0  0  0  0  0  4           0  0  0
    5.5554    4.8180   -1.3341 C   0  0  0  0  0  4           0  0  0
    0.2361    1.6422   -4.1531 C   0  0  0  0  0  4           0  0  0
   -0.3373    0.0390   -2.5151 C   0  0  0  0  0  4           0  0  0
    1.4497   -0.0000   -0.0000 C   0  0  0  0  0  4           0  0  0
   -0.3193   -0.0056    2.5204 C   0  0  0  0  0  4           0  0  0
   -1.0721   -1.0028    3.3951 C   0  0  0  0  0  4           0  0  0
   -0.5726   -1.0153    4.8377 C   0  0  0  0  0  4           0  0  0
    0.3013    3.1175   -4.4098 C   0  0  0  0  0  4           0  0  0
   -1.3414   -2.0175    5.6828 C   0  0  0  0  0  4           0  0  0
  1  8  1  0     0  0
  2 23  2  0     0  0
  3 24  2  0     0  0
  4 24  1  0     0  0
  4 25  1  0     0  0
  5 23  1  0     0  0
  6  9  1  0     0  0
  6 10  1  0     0  0
  6 26  1  0     0  0
  7  8  1  0     0  0
  7  9  2  0     0  0
  8 10  2  0     0  0
  9 27  1  0     0  0
 10 25  1  0     0  0
 11 12  1  0     0  0
 11 13  1  0     0  0
 11 15  2  0     0  0
 12 16  2  0     0  0
 12 17  1  0     0  0
 13 18  2  0     0  0
 13 23  1  0     0  0
 14 19  2  0     0  0
 14 20  1  0     0  0
 14 26  1  0     0  0
 15 21  1  0     0  0
 16 19  1  0     0  0
 17 20  2  0     0  0
 18 22  1  0     0  0
 21 22  2  0     0  0
 24 30  1  0     0  0
 27 28  1  0     0  0
 28 29  1  0     0  0
 29 31  1  0     0  0
M  END
> <standard_type>
pIC50

> <# Confs.>
25

> <canonical_smiles>
CCCCC1=NC(Cl)=C(COC(C)=O)N1CC2=CC=C(C3=CC=CC=C3C(O)=O)C=C2

> <standard_relation>
=

> <Publication_ID>
nan

> <predicted_activity_value>
6.920818753952375

> <actual_activity_value>
5.47755576649368

> <Compound>
18

> <standard_units>
nM

> hash
17930109462890095984

$$$$
17
XXILIB    08252103513D 0   0.00000     0.00000

 31 33  0     1  0            999 V2000
   -3.5602    0.0114   -1.4766 Cl  0  0  0  0  0  1           0  0  0
    6.5480   -4.0109   -0.0139 O   0  0  0  0  0  2           0  0  0
    0.5144    0.7915   -4.9878 O   0  0  0  0  0  2           0  0  0
   -0.1999    1.4161   -2.8834 O   0  0  0  0  0  2           0  0  0
    5.9210   -4.4765    2.1150 O   0  0  0  0  0  2           0  0  0
    0.0000   -0.0000    0.0000 N   0  0  0  0  0  3           0  0  0
   -2.0836    0.0005    0.7718 N   0  0  0  0  0  3           0  0  0
   -2.0993    0.0105   -0.5980 C   0  0  0  0  0  4           0  0  0
   -0.8119    0.0000    1.1177 C   0  0  0  0  0  4           0  0  0
   -0.8166    0.0194   -1.1139 C   0  0  0  0  0  4           0  0  0
    3.5746   -5.3906    0.0336 C   0  0  0  0  0  4           0  0  0
    3.0352   -4.0248    0.0233 C   0  0  0  0  0  4           0  0  0
    4.9207   -5.6973    0.3321 C   0  0  0  0  0  4           0  0  0
    1.9918   -1.3967    0.0000 C   0  0  0  0  0  4           0  0  0
    2.7261   -6.4670   -0.2968 C   0  0  0  0  0  4           0  0  0
    3.5583   -3.0527   -0.8424 C   0  0  0  0  0  4           0  0  0
    1.9858   -3.6616    0.8803 C   0  0  0  0  0  4           0  0  0
    5.3892   -7.0203    0.2933 C   0  0  0  0  0  4           0  0  0
    3.0442   -1.7530   -0.8522 C   0  0  0  0  0  4           0  0  0
    1.4716   -2.3619    0.8708 C   0  0  0  0  0  4           0  0  0
    3.1944   -7.7829   -0.3369 C   0  0  0  0  0  4           0  0  0
    4.5257   -8.0583   -0.0456 C   0  0  0  0  0  4           0  0  0
    5.8688   -4.6537    0.7738 C   0  0  0  0  0  4           0  0  0
    0.2361    1.6422   -4.1531 C   0  0  0  0  0  4           0  0  0
   -0.3373    0.0390   -2.5151 C   0  0  0  0  0  4           0  0  0
    1.4497    0.0000   -0.0000 C   0  0  0  0  0  4           0  0  0
   -0.3193   -0.0056    2.5204 C   0  0  0  0  0  4           0  0  0
   -1.0721   -1.0028    3.3951 C   0  0  0  0  0  4           0  0  0
   -0.5726   -1.0153    4.8377 C   0  0  0  0  0  4           0  0  0
    0.3013    3.1175   -4.4098 C   0  0  0  0  0  4           0  0  0
   -1.3414   -2.0175    5.6828 C   0  0  0  0  0  4           0  0  0
  1  8  1  0     0  0
  2 23  2  0     0  0
  3 24  2  0     0  0
  4 24  1  0     0  0
  4 25  1  0     0  0
  5 23  1  0     0  0
  6  9  1  0     0  0
  6 10  1  0     0  0
  6 26  1  0     0  0
  7  8  1  0     0  0
  7  9  2  0     0  0
  8 10  2  0     0  0
  9 27  1  0     0  0
 10 25  1  0     0  0
 11 12  1  0     0  0
 11 13  1  0     0  0
 11 15  2  0     0  0
 12 16  2  0     0  0
 12 17  1  0     0  0
 13 18  2  0     0  0
 13 23  1  0     0  0
 14 19  2  0     0  0
 14 20  1  0     0  0
 14 26  1  0     0  0
 15 21  1  0     0  0
 16 19  1  0     0  0
 17 20  2  0     0  0
 18 22  1  0     0  0
 21 22  2  0     0  0
 24 30  1  0     0  0
 27 28  1  0     0  0
 28 29  1  0     0  0
 29 31  1  0     0  0
M  END
> <standard_type>
pIC50

> <# Confs.>
25

> <canonical_smiles>
CCCCC1=NC(Cl)=C(COC(C)=O)N1CC2=CC=C(C3=CC=CC=C3C(O)=O)C=C2

> <standard_relation>
=

> <Publication_ID>
nan

> <predicted_activity_value>
6.920818753952375

> <actual_activity_value>
5.47755576649368

> <Compound>
18

> <standard_units>
nM

> hash
17930109462890095984

$$$$
17
XXILIB    08252103513D 0   0.00000     0.00000

 31 33  0     1  0            999 V2000
   -3.5602    0.0114   -1.4766 Cl  0  0  0  0  0  1           0  0  0
    5.4297    4.6585   -2.5398 O   0  0  0  0  0  2           0  0  0
    0.5144    0.7915   -4.9878 O   0  0  0  0  0  2           0  0  0
   -0.1999    1.4161   -2.8834 O   0  0  0  0  0  2           0  0  0
    6.4442    4.1261   -0.5829 O   0  0  0  0  0  2           0  0  0
    0.0000   -0.0000    0.0000 N   0  0  0  0  0  3           0  0  0
   -2.0836    0.0005    0.7718 N   0  0  0  0  0  3           0  0  0
   -2.0993    0.0105   -0.5980 C   0  0  0  0  0  4           0  0  0
   -0.8119    0.0000    1.1177 C   0  0  0  0  0  4           0  0  0
   -0.8166    0.0194   -1.1139 C   0  0  0  0  0  4           0  0  0
    3.5038    5.4181    0.0021 C   0  0  0  0  0  4           0  0  0
    2.9850    4.0443    0.0010 C   0  0  0  0  0  4           0  0  0
    4.7388    5.7878   -0.5753 C   0  0  0  0  0  4           0  0  0
    1.9918    1.3967    0.0000 C   0  0  0  0  0  4           0  0  0
    2.7573    6.4341    0.6330 C   0  0  0  0  0  4           0  0  0
    2.7429    3.3692   -1.2047 C   0  0  0  0  0  4           0  0  0
    2.7185    3.3772    1.2058 C   0  0  0  0  0  4           0  0  0
    5.2007    7.1123   -0.5143 C   0  0  0  0  0  4           0  0  0
    2.2497    2.0614   -1.2052 C   0  0  0  0  0  4           0  0  0
    2.2251    2.0695    1.2056 C   0  0  0  0  0  4           0  0  0
    3.2193    7.7514    0.6946 C   0  0  0  0  0  4           0  0  0
    4.4416    8.0888    0.1245 C   0  0  0  0  0  4           0  0  0
    5.5554    4.8180   -1.3341 C   0  0  0  0  0  4           0  0  0
    0.2361    1.6422   -4.1531 C   0  0  0  0  0  4           0  0  0
   -0.3373    0.0390   -2.5151 C   0  0  0  0  0  4           0  0  0
    1.4497   -0.0000   -0.0000 C   0  0  0  0  0  4           0  0  0
   -0.3193   -0.0056    2.5204 C   0  0  0  0  0  4           0  0  0
   -1.0721   -1.0028    3.3951 C   0  0  0  0  0  4           0  0  0
   -0.9474   -2.4389    2.8925 C   0  0  0  0  0  4           0  0  0
    0.3013    3.1175   -4.4098 C   0  0  0  0  0  4           0  0  0
   -1.7072   -3.4071    3.7839 C   0  0  0  0  0  4           0  0  0
  1  8  1  0     0  0
  2 23  2  0     0  0
  3 24  2  0     0  0
  4 24  1  0     0  0
  4 25  1  0     0  0
  5 23  1  0     0  0
  6  9  1  0     0  0
  6 10  1  0     0  0
  6 26  1  0     0  0
  7  8  1  0     0  0
  7  9  2  0     0  0
  8 10  2  0     0  0
  9 27  1  0     0  0
 10 25  1  0     0  0
 11 12  1  0     0  0
 11 13  1  0     0  0
 11 15  2  0     0  0
 12 16  2  0     0  0
 12 17  1  0     0  0
 13 18  2  0     0  0
 13 23  1  0     0  0
 14 19  2  0     0  0
 14 20  1  0     0  0
 14 26  1  0     0  0
 15 21  1  0     0  0
 16 19  1  0     0  0
 17 20  2  0     0  0
 18 22  1  0     0  0
 21 22  2  0     0  0
 24 30  1  0     0  0
 27 28  1  0     0  0
 28 29  1  0     0  0
 29 31  1  0     0  0
M  END
> <standard_type>
pIC50

> <# Confs.>
25

> <canonical_smiles>
CCCCC1=NC(Cl)=C(COC(C)=O)N1CC2=CC=C(C3=CC=CC=C3C(O)=O)C=C2

> <standard_relation>
=

> <Publication_ID>
nan

> <predicted_activity_value>
6.920818753952375

> <actual_activity_value>
5.47755576649368

> <Compound>
18

> <standard_units>
nM

> hash
17930109462890095984

$$$$
17
XXILIB    08252103513D 0   0.00000     0.00000

 31 33  0     1  0            999 V2000
   -3.5602    0.0114   -1.4766 Cl  0  0  0  0  0  1           0  0  0
    3.4570    5.2105    3.3018 O   0  0  0  0  0  2           0  0  0
    0.5099   -0.6441   -5.0094 O   0  0  0  0  0  2           0  0  0
   -0.2086   -1.3273   -2.9248 O   0  0  0  0  0  2           0  0  0
    5.5166    4.6334    2.5488 O   0  0  0  0  0  2           0  0  0
    0.0000   -0.0000    0.0000 N   0  0  0  0  0  3           0  0  0
   -2.0836    0.0005    0.7718 N   0  0  0  0  0  3           0  0  0
   -2.0993    0.0105   -0.5980 C   0  0  0  0  0  4           0  0  0
   -0.8119    0.0000    1.1177 C   0  0  0  0  0  4           0  0  0
   -0.8166    0.0194   -1.1139 C   0  0  0  0  0  4           0  0  0
    3.5774    5.3896    0.0306 C   0  0  0  0  0  4           0  0  0
    3.0365    4.0243    0.0219 C   0  0  0  0  0  4           0  0  0
    4.1353    6.0021    1.1746 C   0  0  0  0  0  4           0  0  0
    1.9918    1.3967    0.0000 C   0  0  0  0  0  4           0  0  0
    3.5214    6.1584   -1.1498 C   0  0  0  0  0  4           0  0  0
    1.9701    3.6691    0.8613 C   0  0  0  0  0  4           0  0  0
    3.5755    3.0446   -0.8250 C   0  0  0  0  0  4           0  0  0
    4.6067    7.3240    1.1327 C   0  0  0  0  0  4           0  0  0
    1.4552    2.3697    0.8522 C   0  0  0  0  0  4           0  0  0
    3.0610    1.7450   -0.8342 C   0  0  0  0  0  4           0  0  0
    3.9891    7.4745   -1.1893 C   0  0  0  0  0  4           0  0  0
    4.5278    8.0574   -0.0479 C   0  0  0  0  0  4           0  0  0
    4.3192    5.2551    2.4360 C   0  0  0  0  0  4           0  0  0
    0.2262   -1.5178   -4.2007 C   0  0  0  0  0  4           0  0  0
   -0.3373    0.0390   -2.5151 C   0  0  0  0  0  4           0  0  0
    1.4497   -0.0000    0.0000 C   0  0  0  0  0  4           0  0  0
   -0.3193   -0.0056    2.5204 C   0  0  0  0  0  4           0  0  0
   -1.0721   -1.0028    3.3951 C   0  0  0  0  0  4           0  0  0
   -0.5726   -1.0153    4.8377 C   0  0  0  0  0  4           0  0  0
    0.3445   -2.9856   -4.4804 C   0  0  0  0  0  4           0  0  0
   -1.3414   -2.0175    5.6828 C   0  0  0  0  0  4           0  0  0
  1  8  1  0     0  0
  2 23  2  0     0  0
  3 24  2  0     0  0
  4 24  1  0     0  0
  4 25  1  0     0  0
  5 23  1  0     0  0
  6  9  1  0     0  0
  6 10  1  0     0  0
  6 26  1  0     0  0
  7  8  1  0     0  0
  7  9  2  0     0  0
  8 10  2  0     0  0
  9 27  1  0     0  0
 10 25  1  0     0  0
 11 12  1  0     0  0
 11 13  1  0     0  0
 11 15  2  0     0  0
 12 16  2  0     0  0
 12 17  1  0     0  0
 13 18  2  0     0  0
 13 23  1  0     0  0
 14 19  2  0     0  0
 14 20  1  0     0  0
 14 26  1  0     0  0
 15 21  1  0     0  0
 16 19  1  0     0  0
 17 20  2  0     0  0
 18 22  1  0     0  0
 21 22  2  0     0  0
 24 30  1  0     0  0
 27 28  1  0     0  0
 28 29  1  0     0  0
 29 31  1  0     0  0
M  END
> <standard_type>
pIC50

> <# Confs.>
25

> <canonical_smiles>
CCCCC1=NC(Cl)=C(COC(C)=O)N1CC2=CC=C(C3=CC=CC=C3C(O)=O)C=C2

> <standard_relation>
=

> <Publication_ID>
nan

> <predicted_activity_value>
6.920818753952375

> <actual_activity_value>
5.47755576649368

> <Compound>
18

> <standard_units>
nM

> hash
17930109462890095984

$$$$
17
XXILIB    08252103513D 0   0.00000     0.00000

 31 33  0     1  0            999 V2000
   -3.5602    0.0114   -1.4766 Cl  0  0  0  0  0  1           0  0  0
    3.4570    5.2105    3.3018 O   0  0  0  0  0  2           0  0  0
    0.5099   -0.6441   -5.0094 O   0  0  0  0  0  2           0  0  0
   -0.2086   -1.3273   -2.9248 O   0  0  0  0  0  2           0  0  0
    5.5166    4.6334    2.5488 O   0  0  0  0  0  2           0  0  0
    0.0000   -0.0000    0.0000 N   0  0  0  0  0  3           0  0  0
   -2.0836    0.0005    0.7718 N   0  0  0  0  0  3           0  0  0
   -2.0993    0.0105   -0.5980 C   0  0  0  0  0  4           0  0  0
   -0.8119    0.0000    1.1177 C   0  0  0  0  0  4           0  0  0
   -0.8166    0.0194   -1.1139 C   0  0  0  0  0  4           0  0  0
    3.5774    5.3896    0.0306 C   0  0  0  0  0  4           0  0  0
    3.0365    4.0243    0.0219 C   0  0  0  0  0  4           0  0  0
    4.1353    6.0021    1.1746 C   0  0  0  0  0  4           0  0  0
    1.9918    1.3967    0.0000 C   0  0  0  0  0  4           0  0  0
    3.5214    6.1584   -1.1498 C   0  0  0  0  0  4           0  0  0
    1.9701    3.6691    0.8613 C   0  0  0  0  0  4           0  0  0
    3.5755    3.0446   -0.8250 C   0  0  0  0  0  4           0  0  0
    4.6067    7.3240    1.1327 C   0  0  0  0  0  4           0  0  0
    1.4552    2.3697    0.8522 C   0  0  0  0  0  4           0  0  0
    3.0610    1.7450   -0.8342 C   0  0  0  0  0  4           0  0  0
    3.9891    7.4745   -1.1893 C   0  0  0  0  0  4           0  0  0
    4.5278    8.0574   -0.0479 C   0  0  0  0  0  4           0  0  0
    4.3192    5.2551    2.4360 C   0  0  0  0  0  4           0  0  0
    0.2262   -1.5178   -4.2007 C   0  0  0  0  0  4           0  0  0
   -0.3373    0.0390   -2.5151 C   0  0  0  0  0  4           0  0  0
    1.4497   -0.0000    0.0000 C   0  0  0  0  0  4           0  0  0
   -0.3193   -0.0056    2.5204 C   0  0  0  0  0  4           0  0  0
   -1.0721   -1.0028    3.3951 C   0  0  0  0  0  4           0  0  0
   -0.9474   -2.4389    2.8925 C   0  0  0  0  0  4           0  0  0
    0.3445   -2.9856   -4.4804 C   0  0  0  0  0  4           0  0  0
   -1.7072   -3.4071    3.7839 C   0  0  0  0  0  4           0  0  0
  1  8  1  0     0  0
  2 23  2  0     0  0
  3 24  2  0     0  0
  4 24  1  0     0  0
  4 25  1  0     0  0
  5 23  1  0     0  0
  6  9  1  0     0  0
  6 10  1  0     0  0
  6 26  1  0     0  0
  7  8  1  0     0  0
  7  9  2  0     0  0
  8 10  2  0     0  0
  9 27  1  0     0  0
 10 25  1  0     0  0
 11 12  1  0     0  0
 11 13  1  0     0  0
 11 15  2  0     0  0
 12 16  2  0     0  0
 12 17  1  0     0  0
 13 18  2  0     0  0
 13 23  1  0     0  0
 14 19  2  0     0  0
 14 20  1  0     0  0
 14 26  1  0     0  0
 15 21  1  0     0  0
 16 19  1  0     0  0
 17 20  2  0     0  0
 18 22  1  0     0  0
 21 22  2  0     0  0
 24 30  1  0     0  0
 27 28  1  0     0  0
 28 29  1  0     0  0
 29 31  1  0     0  0
M  END
> <standard_type>
pIC50

> <# Confs.>
25

> <canonical_smiles>
CCCCC1=NC(Cl)=C(COC(C)=O)N1CC2=CC=C(C3=CC=CC=C3C(O)=O)C=C2

> <standard_relation>
=

> <Publication_ID>
nan

> <predicted_activity_value>
6.920818753952375

> <actual_activity_value>
5.47755576649368

> <Compound>
18

> <standard_units>
nM

> hash
17930109462890095984

$$$$
17
XXILIB    08252103513D 0   0.00000     0.00000

 31 33  0     1  0            999 V2000
   -3.5602    0.0114   -1.4766 Cl  0  0  0  0  0  1           0  0  0
    2.0288    5.8150   -2.8275 O   0  0  0  0  0  2           0  0  0
    0.5144    0.7915   -4.9878 O   0  0  0  0  0  2           0  0  0
   -0.1999    1.4161   -2.8834 O   0  0  0  0  0  2           0  0  0
    0.7430    6.5475   -1.1093 O   0  0  0  0  0  2           0  0  0
    0.0000   -0.0000    0.0000 N   0  0  0  0  0  3           0  0  0
   -2.0836    0.0005    0.7718 N   0  0  0  0  0  3           0  0  0
   -2.0993    0.0105   -0.5980 C   0  0  0  0  0  4           0  0  0
   -0.8119    0.0000    1.1177 C   0  0  0  0  0  4           0  0  0
   -0.8166    0.0194   -1.1139 C   0  0  0  0  0  4           0  0  0
    3.5774    5.3896    0.0306 C   0  0  0  0  0  4           0  0  0
    3.0365    4.0243    0.0219 C   0  0  0  0  0  4           0  0  0
    3.1014    6.4242   -0.8050 C   0  0  0  0  0  4           0  0  0
    1.9918    1.3967    0.0000 C   0  0  0  0  0  4           0  0  0
    4.6491    5.6988    0.8927 C   0  0  0  0  0  4           0  0  0
    1.9701    3.6691    0.8613 C   0  0  0  0  0  4           0  0  0
    3.5755    3.0446   -0.8250 C   0  0  0  0  0  4           0  0  0
    3.6802    7.7031   -0.7777 C   0  0  0  0  0  4           0  0  0
    1.4552    2.3697    0.8522 C   0  0  0  0  0  4           0  0  0
    3.0610    1.7450   -0.8342 C   0  0  0  0  0  4           0  0  0
    5.2253    6.9714    0.9174 C   0  0  0  0  0  4           0  0  0
    4.7434    7.9712    0.0801 C   0  0  0  0  0  4           0  0  0
    1.9279    6.2285   -1.6813 C   0  0  0  0  0  4           0  0  0
    0.2361    1.6422   -4.1531 C   0  0  0  0  0  4           0  0  0
   -0.3373    0.0390   -2.5151 C   0  0  0  0  0  4           0  0  0
    1.4497   -0.0000    0.0000 C   0  0  0  0  0  4           0  0  0
   -0.3193   -0.0056    2.5204 C   0  0  0  0  0  4           0  0  0
   -0.1324   -1.4186    3.0634 C   0  0  0  0  0  4           0  0  0
    0.3734   -1.4340    4.5038 C   0  0  0  0  0  4           0  0  0
    0.3013    3.1175   -4.4098 C   0  0  0  0  0  4           0  0  0
    0.5492   -2.8541    5.0154 C   0  0  0  0  0  4           0  0  0
  1  8  1  0     0  0
  2 23  2  0     0  0
  3 24  2  0     0  0
  4 24  1  0     0  0
  4 25  1  0     0  0
  5 23  1  0     0  0
  6  9  1  0     0  0
  6 10  1  0     0  0
  6 26  1  0     0  0
  7  8  1  0     0  0
  7  9  2  0     0  0
  8 10  2  0     0  0
  9 27  1  0     0  0
 10 25  1  0     0  0
 11 12  1  0     0  0
 11 13  1  0     0  0
 11 15  2  0     0  0
 12 16  2  0     0  0
 12 17  1  0     0  0
 13 18  2  0     0  0
 13 23  1  0     0  0
 14 19  2  0     0  0
 14 20  1  0     0  0
 14 26  1  0     0  0
 15 21  1  0     0  0
 16 19  1  0     0  0
 17 20  2  0     0  0
 18 22  1  0     0  0
 21 22  2  0     0  0
 24 30  1  0     0  0
 27 28  1  0     0  0
 28 29  1  0     0  0
 29 31  1  0     0  0
M  END
> <standard_type>
pIC50

> <# Confs.>
25

> <canonical_smiles>
CCCCC1=NC(Cl)=C(COC(C)=O)N1CC2=CC=C(C3=CC=CC=C3C(O)=O)C=C2

> <standard_relation>
=

> <Publication_ID>
nan

> <predicted_activity_value>
6.920818753952375

> <actual_activity_value>
5.47755576649368

> <Compound>
18

> <standard_units>
nM

> hash
17930109462890095984

$$$$
17
XXILIB    08252103513D 0   0.00000     0.00000

 31 33  0     1  0            999 V2000
   -3.5602    0.0114   -1.4766 Cl  0  0  0  0  0  1           0  0  0
    6.5480   -4.0109   -0.0139 O   0  0  0  0  0  2           0  0  0
    0.5099   -0.6441   -5.0094 O   0  0  0  0  0  2           0  0  0
   -0.2086   -1.3273   -2.9248 O   0  0  0  0  0  2           0  0  0
    5.9210   -4.4765    2.1150 O   0  0  0  0  0  2           0  0  0
    0.0000   -0.0000    0.0000 N   0  0  0  0  0  3           0  0  0
   -2.0836    0.0005    0.7718 N   0  0  0  0  0  3           0  0  0
   -2.0993    0.0105   -0.5980 C   0  0  0  0  0  4           0  0  0
   -0.8119    0.0000    1.1177 C   0  0  0  0  0  4           0  0  0
   -0.8166    0.0194   -1.1139 C   0  0  0  0  0  4           0  0  0
    3.5746   -5.3906    0.0336 C   0  0  0  0  0  4           0  0  0
    3.0352   -4.0248    0.0233 C   0  0  0  0  0  4           0  0  0
    4.9207   -5.6973    0.3321 C   0  0  0  0  0  4           0  0  0
    1.9918   -1.3967    0.0000 C   0  0  0  0  0  4           0  0  0
    2.7261   -6.4670   -0.2968 C   0  0  0  0  0  4           0  0  0
    3.5583   -3.0527   -0.8424 C   0  0  0  0  0  4           0  0  0
    1.9858   -3.6616    0.8803 C   0  0  0  0  0  4           0  0  0
    5.3892   -7.0203    0.2933 C   0  0  0  0  0  4           0  0  0
    3.0442   -1.7530   -0.8522 C   0  0  0  0  0  4           0  0  0
    1.4716   -2.3619    0.8708 C   0  0  0  0  0  4           0  0  0
    3.1944   -7.7829   -0.3369 C   0  0  0  0  0  4           0  0  0
    4.5257   -8.0583   -0.0456 C   0  0  0  0  0  4           0  0  0
    5.8688   -4.6537    0.7738 C   0  0  0  0  0  4           0  0  0
    0.2262   -1.5178   -4.2007 C   0  0  0  0  0  4           0  0  0
   -0.3373    0.0390   -2.5151 C   0  0  0  0  0  4           0  0  0
    1.4497    0.0000   -0.0000 C   0  0  0  0  0  4           0  0  0
   -0.3193   -0.0056    2.5204 C   0  0  0  0  0  4           0  0  0
   -1.0721   -1.0028    3.3951 C   0  0  0  0  0  4           0  0  0
   -0.5726   -1.0153    4.8377 C   0  0  0  0  0  4           0  0  0
    0.3445   -2.9856   -4.4804 C   0  0  0  0  0  4           0  0  0
   -1.3414   -2.0175    5.6828 C   0  0  0  0  0  4           0  0  0
  1  8  1  0     0  0
  2 23  2  0     0  0
  3 24  2  0     0  0
  4 24  1  0     0  0
  4 25  1  0     0  0
  5 23  1  0     0  0
  6  9  1  0     0  0
  6 10  1  0     0  0
  6 26  1  0     0  0
  7  8  1  0     0  0
  7  9  2  0     0  0
  8 10  2  0     0  0
  9 27  1  0     0  0
 10 25  1  0     0  0
 11 12  1  0     0  0
 11 13  1  0     0  0
 11 15  2  0     0  0
 12 16  2  0     0  0
 12 17  1  0     0  0
 13 18  2  0     0  0
 13 23  1  0     0  0
 14 19  2  0     0  0
 14 20  1  0     0  0
 14 26  1  0     0  0
 15 21  1  0     0  0
 16 19  1  0     0  0
 17 20  2  0     0  0
 18 22  1  0     0  0
 21 22  2  0     0  0
 24 30  1  0     0  0
 27 28  1  0     0  0
 28 29  1  0     0  0
 29 31  1  0     0  0
M  END
> <standard_type>
pIC50

> <# Confs.>
25

> <canonical_smiles>
CCCCC1=NC(Cl)=C(COC(C)=O)N1CC2=CC=C(C3=CC=CC=C3C(O)=O)C=C2

> <standard_relation>
=

> <Publication_ID>
nan

> <predicted_activity_value>
6.920818753952375

> <actual_activity_value>
5.47755576649368

> <Compound>
18

> <standard_units>
nM

> hash
17930109462890095984

$$$$
17
XXILIB    08252103513D 0   0.00000     0.00000

 31 33  0     1  0            999 V2000
   -3.5602    0.0114   -1.4766 Cl  0  0  0  0  0  1           0  0  0
    5.4297   -4.6585    2.5398 O   0  0  0  0  0  2           0  0  0
    0.0335    0.5852   -5.1552 O   0  0  0  0  0  2           0  0  0
   -1.1190    1.0220   -3.2033 O   0  0  0  0  0  2           0  0  0
    6.4442   -4.1261    0.5829 O   0  0  0  0  0  2           0  0  0
    0.0000   -0.0000    0.0000 N   0  0  0  0  0  3           0  0  0
   -2.0836    0.0005    0.7718 N   0  0  0  0  0  3           0  0  0
   -2.0993    0.0105   -0.5980 C   0  0  0  0  0  4           0  0  0
   -0.8119   -0.0000    1.1177 C   0  0  0  0  0  4           0  0  0
   -0.8166    0.0194   -1.1139 C   0  0  0  0  0  4           0  0  0
    3.5038   -5.4181   -0.0021 C   0  0  0  0  0  4           0  0  0
    2.9850   -4.0443   -0.0010 C   0  0  0  0  0  4           0  0  0
    4.7388   -5.7878    0.5753 C   0  0  0  0  0  4           0  0  0
    1.9918   -1.3967    0.0000 C   0  0  0  0  0  4           0  0  0
    2.7573   -6.4341   -0.6330 C   0  0  0  0  0  4           0  0  0
    2.7429   -3.3692    1.2047 C   0  0  0  0  0  4           0  0  0
    2.7185   -3.3772   -1.2058 C   0  0  0  0  0  4           0  0  0
    5.2007   -7.1123    0.5143 C   0  0  0  0  0  4           0  0  0
    2.2497   -2.0614    1.2052 C   0  0  0  0  0  4           0  0  0
    2.2251   -2.0695   -1.2056 C   0  0  0  0  0  4           0  0  0
    3.2193   -7.7514   -0.6946 C   0  0  0  0  0  4           0  0  0
    4.4416   -8.0888   -0.1245 C   0  0  0  0  0  4           0  0  0
    5.5554   -4.8180    1.3341 C   0  0  0  0  0  4           0  0  0
   -0.8226    1.1882   -4.5216 C   0  0  0  0  0  4           0  0  0
   -0.3373    0.0390   -2.5151 C   0  0  0  0  0  4           0  0  0
    1.4497    0.0000   -0.0000 C   0  0  0  0  0  4           0  0  0
   -0.3193   -0.0056    2.5204 C   0  0  0  0  0  4           0  0  0
   -1.0646    0.9923    3.4005 C   0  0  0  0  0  4           0  0  0
   -0.5651    0.9933    4.8432 C   0  0  0  0  0  4           0  0  0
   -1.7342    2.2173   -5.1186 C   0  0  0  0  0  4           0  0  0
   -1.3264    1.9966    5.6937 C   0  0  0  0  0  4           0  0  0
  1  8  1  0     0  0
  2 23  2  0     0  0
  3 24  2  0     0  0
  4 24  1  0     0  0
  4 25  1  0     0  0
  5 23  1  0     0  0
  6  9  1  0     0  0
  6 10  1  0     0  0
  6 26  1  0     0  0
  7  8  1  0     0  0
  7  9  2  0     0  0
  8 10  2  0     0  0
  9 27  1  0     0  0
 10 25  1  0     0  0
 11 12  1  0     0  0
 11 13  1  0     0  0
 11 15  2  0     0  0
 12 16  2  0     0  0
 12 17  1  0     0  0
 13 18  2  0     0  0
 13 23  1  0     0  0
 14 19  2  0     0  0
 14 20  1  0     0  0
 14 26  1  0     0  0
 15 21  1  0     0  0
 16 19  1  0     0  0
 17 20  2  0     0  0
 18 22  1  0     0  0
 21 22  2  0     0  0
 24 30  1  0     0  0
 27 28  1  0     0  0
 28 29  1  0     0  0
 29 31  1  0     0  0
M  END
> <standard_type>
pIC50

> <# Confs.>
25

> <canonical_smiles>
CCCCC1=NC(Cl)=C(COC(C)=O)N1CC2=CC=C(C3=CC=CC=C3C(O)=O)C=C2

> <standard_relation>
=

> <Publication_ID>
nan

> <predicted_activity_value>
6.920818753952375

> <actual_activity_value>
5.47755576649368

> <Compound>
18

> <standard_units>
nM

> hash
17930109462890095984

$$$$
17
XXILIB    08252103513D 0   0.00000     0.00000

 31 33  0     1  0            999 V2000
   -3.5602    0.0114   -1.4766 Cl  0  0  0  0  0  1           0  0  0
    6.5480   -4.0109   -0.0139 O   0  0  0  0  0  2           0  0  0
    0.5144    0.7915   -4.9878 O   0  0  0  0  0  2           0  0  0
   -0.1999    1.4161   -2.8834 O   0  0  0  0  0  2           0  0  0
    5.9210   -4.4765    2.1150 O   0  0  0  0  0  2           0  0  0
    0.0000   -0.0000    0.0000 N   0  0  0  0  0  3           0  0  0
   -2.0836    0.0005    0.7718 N   0  0  0  0  0  3           0  0  0
   -2.0993    0.0105   -0.5980 C   0  0  0  0  0  4           0  0  0
   -0.8119    0.0000    1.1177 C   0  0  0  0  0  4           0  0  0
   -0.8166    0.0194   -1.1139 C   0  0  0  0  0  4           0  0  0
    3.5746   -5.3906    0.0336 C   0  0  0  0  0  4           0  0  0
    3.0352   -4.0248    0.0233 C   0  0  0  0  0  4           0  0  0
    4.9207   -5.6973    0.3321 C   0  0  0  0  0  4           0  0  0
    1.9918   -1.3967    0.0000 C   0  0  0  0  0  4           0  0  0
    2.7261   -6.4670   -0.2968 C   0  0  0  0  0  4           0  0  0
    3.5583   -3.0527   -0.8424 C   0  0  0  0  0  4           0  0  0
    1.9858   -3.6616    0.8803 C   0  0  0  0  0  4           0  0  0
    5.3892   -7.0203    0.2933 C   0  0  0  0  0  4           0  0  0
    3.0442   -1.7530   -0.8522 C   0  0  0  0  0  4           0  0  0
    1.4716   -2.3619    0.8708 C   0  0  0  0  0  4           0  0  0
    3.1944   -7.7829   -0.3369 C   0  0  0  0  0  4           0  0  0
    4.5257   -8.0583   -0.0456 C   0  0  0  0  0  4           0  0  0
    5.8688   -4.6537    0.7738 C   0  0  0  0  0  4           0  0  0
    0.2361    1.6422   -4.1531 C   0  0  0  0  0  4           0  0  0
   -0.3373    0.0390   -2.5151 C   0  0  0  0  0  4           0  0  0
    1.4497    0.0000   -0.0000 C   0  0  0  0  0  4           0  0  0
   -0.3193   -0.0056    2.5204 C   0  0  0  0  0  4           0  0  0
   -1.0646    0.9923    3.4005 C   0  0  0  0  0  4           0  0  0
   -0.5651    0.9933    4.8432 C   0  0  0  0  0  4           0  0  0
    0.3013    3.1175   -4.4098 C   0  0  0  0  0  4           0  0  0
   -1.3264    1.9966    5.6937 C   0  0  0  0  0  4           0  0  0
  1  8  1  0     0  0
  2 23  2  0     0  0
  3 24  2  0     0  0
  4 24  1  0     0  0
  4 25  1  0     0  0
  5 23  1  0     0  0
  6  9  1  0     0  0
  6 10  1  0     0  0
  6 26  1  0     0  0
  7  8  1  0     0  0
  7  9  2  0     0  0
  8 10  2  0     0  0
  9 27  1  0     0  0
 10 25  1  0     0  0
 11 12  1  0     0  0
 11 13  1  0     0  0
 11 15  2  0     0  0
 12 16  2  0     0  0
 12 17  1  0     0  0
 13 18  2  0     0  0
 13 23  1  0     0  0
 14 19  2  0     0  0
 14 20  1  0     0  0
 14 26  1  0     0  0
 15 21  1  0     0  0
 16 19  1  0     0  0
 17 20  2  0     0  0
 18 22  1  0     0  0
 21 22  2  0     0  0
 24 30  1  0     0  0
 27 28  1  0     0  0
 28 29  1  0     0  0
 29 31  1  0     0  0
M  END
> <standard_type>
pIC50

> <# Confs.>
25

> <canonical_smiles>
CCCCC1=NC(Cl)=C(COC(C)=O)N1CC2=CC=C(C3=CC=CC=C3C(O)=O)C=C2

> <standard_relation>
=

> <Publication_ID>
nan

> <predicted_activity_value>
6.920818753952375

> <actual_activity_value>
5.47755576649368

> <Compound>
18

> <standard_units>
nM

> hash
17930109462890095984

$$$$
17
XXILIB    08252103513D 0   0.00000     0.00000

 31 33  0     1  0            999 V2000
   -3.5602    0.0114   -1.4766 Cl  0  0  0  0  0  1           0  0  0
    5.4297   -4.6585    2.5398 O   0  0  0  0  0  2           0  0  0
    0.5099   -0.6441   -5.0094 O   0  0  0  0  0  2           0  0  0
   -0.2086   -1.3273   -2.9248 O   0  0  0  0  0  2           0  0  0
    6.4442   -4.1261    0.5829 O   0  0  0  0  0  2           0  0  0
    0.0000   -0.0000    0.0000 N   0  0  0  0  0  3           0  0  0
   -2.0836    0.0005    0.7718 N   0  0  0  0  0  3           0  0  0
   -2.0993    0.0105   -0.5980 C   0  0  0  0  0  4           0  0  0
   -0.8119    0.0000    1.1177 C   0  0  0  0  0  4           0  0  0
   -0.8166    0.0194   -1.1139 C   0  0  0  0  0  4           0  0  0
    3.5038   -5.4181   -0.0021 C   0  0  0  0  0  4           0  0  0
    2.9850   -4.0443   -0.0010 C   0  0  0  0  0  4           0  0  0
    4.7388   -5.7878    0.5753 C   0  0  0  0  0  4           0  0  0
    1.9918   -1.3967    0.0000 C   0  0  0  0  0  4           0  0  0
    2.7573   -6.4341   -0.6330 C   0  0  0  0  0  4           0  0  0
    2.7429   -3.3692    1.2047 C   0  0  0  0  0  4           0  0  0
    2.7185   -3.3772   -1.2058 C   0  0  0  0  0  4           0  0  0
    5.2007   -7.1123    0.5143 C   0  0  0  0  0  4           0  0  0
    2.2497   -2.0614    1.2052 C   0  0  0  0  0  4           0  0  0
    2.2251   -2.0695   -1.2056 C   0  0  0  0  0  4           0  0  0
    3.2193   -7.7514   -0.6946 C   0  0  0  0  0  4           0  0  0
    4.4416   -8.0888   -0.1245 C   0  0  0  0  0  4           0  0  0
    5.5554   -4.8180    1.3341 C   0  0  0  0  0  4           0  0  0
    0.2262   -1.5178   -4.2007 C   0  0  0  0  0  4           0  0  0
   -0.3373    0.0390   -2.5151 C   0  0  0  0  0  4           0  0  0
    1.4497    0.0000   -0.0000 C   0  0  0  0  0  4           0  0  0
   -0.3193   -0.0056    2.5204 C   0  0  0  0  0  4           0  0  0
   -1.0646    0.9923    3.4005 C   0  0  0  0  0  4           0  0  0
   -0.5651    0.9933    4.8432 C   0  0  0  0  0  4           0  0  0
    0.3445   -2.9856   -4.4804 C   0  0  0  0  0  4           0  0  0
   -1.3264    1.9966    5.6937 C   0  0  0  0  0  4           0  0  0
  1  8  1  0     0  0
  2 23  2  0     0  0
  3 24  2  0     0  0
  4 24  1  0     0  0
  4 25  1  0     0  0
  5 23  1  0     0  0
  6  9  1  0     0  0
  6 10  1  0     0  0
  6 26  1  0     0  0
  7  8  1  0     0  0
  7  9  2  0     0  0
  8 10  2  0     0  0
  9 27  1  0     0  0
 10 25  1  0     0  0
 11 12  1  0     0  0
 11 13  1  0     0  0
 11 15  2  0     0  0
 12 16  2  0     0  0
 12 17  1  0     0  0
 13 18  2  0     0  0
 13 23  1  0     0  0
 14 19  2  0     0  0
 14 20  1  0     0  0
 14 26  1  0     0  0
 15 21  1  0     0  0
 16 19  1  0     0  0
 17 20  2  0     0  0
 18 22  1  0     0  0
 21 22  2  0     0  0
 24 30  1  0     0  0
 27 28  1  0     0  0
 28 29  1  0     0  0
 29 31  1  0     0  0
M  END
> <standard_type>
pIC50

> <# Confs.>
25

> <canonical_smiles>
CCCCC1=NC(Cl)=C(COC(C)=O)N1CC2=CC=C(C3=CC=CC=C3C(O)=O)C=C2

> <standard_relation>
=

> <Publication_ID>
nan

> <predicted_activity_value>
6.920818753952375

> <actual_activity_value>
5.47755576649368

> <Compound>
18

> <standard_units>
nM

> hash
17930109462890095984

$$$$
17
XXILIB    08252103513D 0   0.00000     0.00000

 31 33  0     1  0            999 V2000
   -3.5602    0.0114   -1.4766 Cl  0  0  0  0  0  1           0  0  0
    3.4570    5.2105    3.3018 O   0  0  0  0  0  2           0  0  0
    0.5144    0.7915   -4.9878 O   0  0  0  0  0  2           0  0  0
   -0.1999    1.4161   -2.8834 O   0  0  0  0  0  2           0  0  0
    5.5166    4.6334    2.5488 O   0  0  0  0  0  2           0  0  0
    0.0000   -0.0000    0.0000 N   0  0  0  0  0  3           0  0  0
   -2.0836    0.0005    0.7718 N   0  0  0  0  0  3           0  0  0
   -2.0993    0.0105   -0.5980 C   0  0  0  0  0  4           0  0  0
   -0.8119    0.0000    1.1177 C   0  0  0  0  0  4           0  0  0
   -0.8166    0.0194   -1.1139 C   0  0  0  0  0  4           0  0  0
    3.5774    5.3896    0.0306 C   0  0  0  0  0  4           0  0  0
    3.0365    4.0243    0.0219 C   0  0  0  0  0  4           0  0  0
    4.1353    6.0021    1.1746 C   0  0  0  0  0  4           0  0  0
    1.9918    1.3967    0.0000 C   0  0  0  0  0  4           0  0  0
    3.5214    6.1584   -1.1498 C   0  0  0  0  0  4           0  0  0
    1.9701    3.6691    0.8613 C   0  0  0  0  0  4           0  0  0
    3.5755    3.0446   -0.8250 C   0  0  0  0  0  4           0  0  0
    4.6067    7.3240    1.1327 C   0  0  0  0  0  4           0  0  0
    1.4552    2.3697    0.8522 C   0  0  0  0  0  4           0  0  0
    3.0610    1.7450   -0.8342 C   0  0  0  0  0  4           0  0  0
    3.9891    7.4745   -1.1893 C   0  0  0  0  0  4           0  0  0
    4.5278    8.0574   -0.0479 C   0  0  0  0  0  4           0  0  0
    4.3192    5.2551    2.4360 C   0  0  0  0  0  4           0  0  0
    0.2361    1.6422   -4.1531 C   0  0  0  0  0  4           0  0  0
   -0.3373    0.0390   -2.5151 C   0  0  0  0  0  4           0  0  0
    1.4497   -0.0000    0.0000 C   0  0  0  0  0  4           0  0  0
   -0.3193   -0.0056    2.5204 C   0  0  0  0  0  4           0  0  0
   -1.0721   -1.0028    3.3951 C   0  0  0  0  0  4           0  0  0
   -0.5726   -1.0153    4.8377 C   0  0  0  0  0  4           0  0  0
    0.3013    3.1175   -4.4098 C   0  0  0  0  0  4           0  0  0
   -1.3414   -2.0175    5.6828 C   0  0  0  0  0  4           0  0  0
  1  8  1  0     0  0
  2 23  2  0     0  0
  3 24  2  0     0  0
  4 24  1  0     0  0
  4 25  1  0     0  0
  5 23  1  0     0  0
  6  9  1  0     0  0
  6 10  1  0     0  0
  6 26  1  0     0  0
  7  8  1  0     0  0
  7  9  2  0     0  0
  8 10  2  0     0  0
  9 27  1  0     0  0
 10 25  1  0     0  0
 11 12  1  0     0  0
 11 13  1  0     0  0
 11 15  2  0     0  0
 12 16  2  0     0  0
 12 17  1  0     0  0
 13 18  2  0     0  0
 13 23  1  0     0  0
 14 19  2  0     0  0
 14 20  1  0     0  0
 14 26  1  0     0  0
 15 21  1  0     0  0
 16 19  1  0     0  0
 17 20  2  0     0  0
 18 22  1  0     0  0
 21 22  2  0     0  0
 24 30  1  0     0  0
 27 28  1  0     0  0
 28 29  1  0     0  0
 29 31  1  0     0  0
M  END
> <standard_type>
pIC50

> <# Confs.>
25

> <canonical_smiles>
CCCCC1=NC(Cl)=C(COC(C)=O)N1CC2=CC=C(C3=CC=CC=C3C(O)=O)C=C2

> <standard_relation>
=

> <Publication_ID>
nan

> <predicted_activity_value>
6.920818753952375

> <actual_activity_value>
5.47755576649368

> <Compound>
18

> <standard_units>
nM

> hash
17930109462890095984

$$$$
17
XXILIB    08252103513D 0   0.00000     0.00000

 31 33  0     1  0            999 V2000
   -3.5602    0.0114   -1.4766 Cl  0  0  0  0  0  1           0  0  0
    5.4297   -4.6585    2.5398 O   0  0  0  0  0  2           0  0  0
    0.0335    0.5852   -5.1552 O   0  0  0  0  0  2           0  0  0
   -1.1190    1.0220   -3.2033 O   0  0  0  0  0  2           0  0  0
    6.4442   -4.1261    0.5829 O   0  0  0  0  0  2           0  0  0
    0.0000   -0.0000    0.0000 N   0  0  0  0  0  3           0  0  0
   -2.0836    0.0005    0.7718 N   0  0  0  0  0  3           0  0  0
   -2.0993    0.0105   -0.5980 C   0  0  0  0  0  4           0  0  0
   -0.8119   -0.0000    1.1177 C   0  0  0  0  0  4           0  0  0
   -0.8166    0.0194   -1.1139 C   0  0  0  0  0  4           0  0  0
    3.5038   -5.4181   -0.0021 C   0  0  0  0  0  4           0  0  0
    2.9850   -4.0443   -0.0010 C   0  0  0  0  0  4           0  0  0
    4.7388   -5.7878    0.5753 C   0  0  0  0  0  4           0  0  0
    1.9918   -1.3967    0.0000 C   0  0  0  0  0  4           0  0  0
    2.7573   -6.4341   -0.6330 C   0  0  0  0  0  4           0  0  0
    2.7429   -3.3692    1.2047 C   0  0  0  0  0  4           0  0  0
    2.7185   -3.3772   -1.2058 C   0  0  0  0  0  4           0  0  0
    5.2007   -7.1123    0.5143 C   0  0  0  0  0  4           0  0  0
    2.2497   -2.0614    1.2052 C   0  0  0  0  0  4           0  0  0
    2.2251   -2.0695   -1.2056 C   0  0  0  0  0  4           0  0  0
    3.2193   -7.7514   -0.6946 C   0  0  0  0  0  4           0  0  0
    4.4416   -8.0888   -0.1245 C   0  0  0  0  0  4           0  0  0
    5.5554   -4.8180    1.3341 C   0  0  0  0  0  4           0  0  0
   -0.8226    1.1882   -4.5216 C   0  0  0  0  0  4           0  0  0
   -0.3373    0.0390   -2.5151 C   0  0  0  0  0  4           0  0  0
    1.4497    0.0000   -0.0000 C   0  0  0  0  0  4           0  0  0
   -0.3193   -0.0056    2.5204 C   0  0  0  0  0  4           0  0  0
   -1.0646    0.9923    3.4005 C   0  0  0  0  0  4           0  0  0
   -0.9293    2.4302    2.9057 C   0  0  0  0  0  4           0  0  0
   -1.7342    2.2173   -5.1186 C   0  0  0  0  0  4           0  0  0
   -1.6819    3.3992    3.8024 C   0  0  0  0  0  4           0  0  0
  1  8  1  0     0  0
  2 23  2  0     0  0
  3 24  2  0     0  0
  4 24  1  0     0  0
  4 25  1  0     0  0
  5 23  1  0     0  0
  6  9  1  0     0  0
  6 10  1  0     0  0
  6 26  1  0     0  0
  7  8  1  0     0  0
  7  9  2  0     0  0
  8 10  2  0     0  0
  9 27  1  0     0  0
 10 25  1  0     0  0
 11 12  1  0     0  0
 11 13  1  0     0  0
 11 15  2  0     0  0
 12 16  2  0     0  0
 12 17  1  0     0  0
 13 18  2  0     0  0
 13 23  1  0     0  0
 14 19  2  0     0  0
 14 20  1  0     0  0
 14 26  1  0     0  0
 15 21  1  0     0  0
 16 19  1  0     0  0
 17 20  2  0     0  0
 18 22  1  0     0  0
 21 22  2  0     0  0
 24 30  1  0     0  0
 27 28  1  0     0  0
 28 29  1  0     0  0
 29 31  1  0     0  0
M  END
> <standard_type>
pIC50

> <# Confs.>
25

> <canonical_smiles>
CCCCC1=NC(Cl)=C(COC(C)=O)N1CC2=CC=C(C3=CC=CC=C3C(O)=O)C=C2

> <standard_relation>
=

> <Publication_ID>
nan

> <predicted_activity_value>
6.920818753952375

> <actual_activity_value>
5.47755576649368

> <Compound>
18

> <standard_units>
nM

> hash
17930109462890095984

$$$$
17
XXILIB    08252103513D 0   0.00000     0.00000

 31 33  0     1  0            999 V2000
   -3.5602    0.0114   -1.4766 Cl  0  0  0  0  0  1           0  0  0
    5.9550   -3.8911   -1.2970 O   0  0  0  0  0  2           0  0  0
    0.5144    0.7915   -4.9878 O   0  0  0  0  0  2           0  0  0
   -0.1999    1.4161   -2.8834 O   0  0  0  0  0  2           0  0  0
    5.2681   -5.1311   -3.0669 O   0  0  0  0  0  2           0  0  0
    0.0000   -0.0000    0.0000 N   0  0  0  0  0  3           0  0  0
   -2.0836    0.0005    0.7718 N   0  0  0  0  0  3           0  0  0
   -2.0993    0.0105   -0.5980 C   0  0  0  0  0  4           0  0  0
   -0.8119    0.0000    1.1177 C   0  0  0  0  0  4           0  0  0
   -0.8166    0.0194   -1.1139 C   0  0  0  0  0  4           0  0  0
    3.5774   -5.3896   -0.0306 C   0  0  0  0  0  4           0  0  0
    3.0365   -4.0243   -0.0219 C   0  0  0  0  0  4           0  0  0
    4.6291   -5.8084   -0.8754 C   0  0  0  0  0  4           0  0  0
    1.9918   -1.3967   -0.0000 C   0  0  0  0  0  4           0  0  0
    3.0118   -6.3582    0.8235 C   0  0  0  0  0  4           0  0  0
    1.9701   -3.6691   -0.8613 C   0  0  0  0  0  4           0  0  0
    3.5755   -3.0446    0.8250 C   0  0  0  0  0  4           0  0  0
    5.0832   -7.1369   -0.8645 C   0  0  0  0  0  4           0  0  0
    1.4552   -2.3697   -0.8522 C   0  0  0  0  0  4           0  0  0
    3.0610   -1.7450    0.8342 C   0  0  0  0  0  4           0  0  0
    3.4635   -7.6804    0.8317 C   0  0  0  0  0  4           0  0  0
    4.4957   -8.0697   -0.0143 C   0  0  0  0  0  4           0  0  0
    5.3464   -4.8526   -1.7443 C   0  0  0  0  0  4           0  0  0
    0.2361    1.6422   -4.1531 C   0  0  0  0  0  4           0  0  0
   -0.3373    0.0390   -2.5151 C   0  0  0  0  0  4           0  0  0
    1.4497    0.0000   -0.0000 C   0  0  0  0  0  4           0  0  0
   -0.3193   -0.0056    2.5204 C   0  0  0  0  0  4           0  0  0
   -0.1324   -1.4186    3.0634 C   0  0  0  0  0  4           0  0  0
    0.3734   -1.4340    4.5038 C   0  0  0  0  0  4           0  0  0
    0.3013    3.1175   -4.4098 C   0  0  0  0  0  4           0  0  0
    0.5492   -2.8541    5.0154 C   0  0  0  0  0  4           0  0  0
  1  8  1  0     0  0
  2 23  2  0     0  0
  3 24  2  0     0  0
  4 24  1  0     0  0
  4 25  1  0     0  0
  5 23  1  0     0  0
  6  9  1  0     0  0
  6 10  1  0     0  0
  6 26  1  0     0  0
  7  8  1  0     0  0
  7  9  2  0     0  0
  8 10  2  0     0  0
  9 27  1  0     0  0
 10 25  1  0     0  0
 11 12  1  0     0  0
 11 13  1  0     0  0
 11 15  2  0     0  0
 12 16  2  0     0  0
 12 17  1  0     0  0
 13 18  2  0     0  0
 13 23  1  0     0  0
 14 19  2  0     0  0
 14 20  1  0     0  0
 14 26  1  0     0  0
 15 21  1  0     0  0
 16 19  1  0     0  0
 17 20  2  0     0  0
 18 22  1  0     0  0
 21 22  2  0     0  0
 24 30  1  0     0  0
 27 28  1  0     0  0
 28 29  1  0     0  0
 29 31  1  0     0  0
M  END
> <standard_type>
pIC50

> <# Confs.>
25

> <canonical_smiles>
CCCCC1=NC(Cl)=C(COC(C)=O)N1CC2=CC=C(C3=CC=CC=C3C(O)=O)C=C2

> <standard_relation>
=

> <Publication_ID>
nan

> <predicted_activity_value>
6.920818753952375

> <actual_activity_value>
5.47755576649368

> <Compound>
18

> <standard_units>
nM

> hash
17930109462890095984

$$$$
17
XXILIB    08252103513D 0   0.00000     0.00000

 31 33  0     1  0            999 V2000
   -3.5602    0.0114   -1.4766 Cl  0  0  0  0  0  1           0  0  0
    6.5480   -4.0109   -0.0139 O   0  0  0  0  0  2           0  0  0
    0.5144    0.7915   -4.9878 O   0  0  0  0  0  2           0  0  0
   -0.1999    1.4161   -2.8834 O   0  0  0  0  0  2           0  0  0
    5.9210   -4.4765    2.1150 O   0  0  0  0  0  2           0  0  0
    0.0000   -0.0000    0.0000 N   0  0  0  0  0  3           0  0  0
   -2.0836    0.0005    0.7718 N   0  0  0  0  0  3           0  0  0
   -2.0993    0.0105   -0.5980 C   0  0  0  0  0  4           0  0  0
   -0.8119    0.0000    1.1177 C   0  0  0  0  0  4           0  0  0
   -0.8166    0.0194   -1.1139 C   0  0  0  0  0  4           0  0  0
    3.5746   -5.3906    0.0336 C   0  0  0  0  0  4           0  0  0
    3.0352   -4.0248    0.0233 C   0  0  0  0  0  4           0  0  0
    4.9207   -5.6973    0.3321 C   0  0  0  0  0  4           0  0  0
    1.9918   -1.3967    0.0000 C   0  0  0  0  0  4           0  0  0
    2.7261   -6.4670   -0.2968 C   0  0  0  0  0  4           0  0  0
    3.5583   -3.0527   -0.8424 C   0  0  0  0  0  4           0  0  0
    1.9858   -3.6616    0.8803 C   0  0  0  0  0  4           0  0  0
    5.3892   -7.0203    0.2933 C   0  0  0  0  0  4           0  0  0
    3.0442   -1.7530   -0.8522 C   0  0  0  0  0  4           0  0  0
    1.4716   -2.3619    0.8708 C   0  0  0  0  0  4           0  0  0
    3.1944   -7.7829   -0.3369 C   0  0  0  0  0  4           0  0  0
    4.5257   -8.0583   -0.0456 C   0  0  0  0  0  4           0  0  0
    5.8688   -4.6537    0.7738 C   0  0  0  0  0  4           0  0  0
    0.2361    1.6422   -4.1531 C   0  0  0  0  0  4           0  0  0
   -0.3373    0.0390   -2.5151 C   0  0  0  0  0  4           0  0  0
    1.4497    0.0000   -0.0000 C   0  0  0  0  0  4           0  0  0
   -0.3193   -0.0056    2.5204 C   0  0  0  0  0  4           0  0  0
   -1.0646    0.9923    3.4005 C   0  0  0  0  0  4           0  0  0
   -0.9293    2.4302    2.9057 C   0  0  0  0  0  4           0  0  0
    0.3013    3.1175   -4.4098 C   0  0  0  0  0  4           0  0  0
   -1.6819    3.3992    3.8024 C   0  0  0  0  0  4           0  0  0
  1  8  1  0     0  0
  2 23  2  0     0  0
  3 24  2  0     0  0
  4 24  1  0     0  0
  4 25  1  0     0  0
  5 23  1  0     0  0
  6  9  1  0     0  0
  6 10  1  0     0  0
  6 26  1  0     0  0
  7  8  1  0     0  0
  7  9  2  0     0  0
  8 10  2  0     0  0
  9 27  1  0     0  0
 10 25  1  0     0  0
 11 12  1  0     0  0
 11 13  1  0     0  0
 11 15  2  0     0  0
 12 16  2  0     0  0
 12 17  1  0     0  0
 13 18  2  0     0  0
 13 23  1  0     0  0
 14 19  2  0     0  0
 14 20  1  0     0  0
 14 26  1  0     0  0
 15 21  1  0     0  0
 16 19  1  0     0  0
 17 20  2  0     0  0
 18 22  1  0     0  0
 21 22  2  0     0  0
 24 30  1  0     0  0
 27 28  1  0     0  0
 28 29  1  0     0  0
 29 31  1  0     0  0
M  END
> <standard_type>
pIC50

> <# Confs.>
25

> <canonical_smiles>
CCCCC1=NC(Cl)=C(COC(C)=O)N1CC2=CC=C(C3=CC=CC=C3C(O)=O)C=C2

> <standard_relation>
=

> <Publication_ID>
nan

> <predicted_activity_value>
6.920818753952375

> <actual_activity_value>
5.47755576649368

> <Compound>
18

> <standard_units>
nM

> hash
17930109462890095984

$$$$
17
XXILIB    08252103513D 0   0.00000     0.00000

 31 33  0     1  0            999 V2000
   -3.5602    0.0114   -1.4766 Cl  0  0  0  0  0  1           0  0  0
    3.4570    5.2105    3.3018 O   0  0  0  0  0  2           0  0  0
    0.5144    0.7915   -4.9878 O   0  0  0  0  0  2           0  0  0
   -0.1999    1.4161   -2.8834 O   0  0  0  0  0  2           0  0  0
    5.5166    4.6334    2.5488 O   0  0  0  0  0  2           0  0  0
    0.0000   -0.0000    0.0000 N   0  0  0  0  0  3           0  0  0
   -2.0836    0.0005    0.7718 N   0  0  0  0  0  3           0  0  0
   -2.0993    0.0105   -0.5980 C   0  0  0  0  0  4           0  0  0
   -0.8119    0.0000    1.1177 C   0  0  0  0  0  4           0  0  0
   -0.8166    0.0194   -1.1139 C   0  0  0  0  0  4           0  0  0
    3.5774    5.3896    0.0306 C   0  0  0  0  0  4           0  0  0
    3.0365    4.0243    0.0219 C   0  0  0  0  0  4           0  0  0
    4.1353    6.0021    1.1746 C   0  0  0  0  0  4           0  0  0
    1.9918    1.3967    0.0000 C   0  0  0  0  0  4           0  0  0
    3.5214    6.1584   -1.1498 C   0  0  0  0  0  4           0  0  0
    1.9701    3.6691    0.8613 C   0  0  0  0  0  4           0  0  0
    3.5755    3.0446   -0.8250 C   0  0  0  0  0  4           0  0  0
    4.6067    7.3240    1.1327 C   0  0  0  0  0  4           0  0  0
    1.4552    2.3697    0.8522 C   0  0  0  0  0  4           0  0  0
    3.0610    1.7450   -0.8342 C   0  0  0  0  0  4           0  0  0
    3.9891    7.4745   -1.1893 C   0  0  0  0  0  4           0  0  0
    4.5278    8.0574   -0.0479 C   0  0  0  0  0  4           0  0  0
    4.3192    5.2551    2.4360 C   0  0  0  0  0  4           0  0  0
    0.2361    1.6422   -4.1531 C   0  0  0  0  0  4           0  0  0
   -0.3373    0.0390   -2.5151 C   0  0  0  0  0  4           0  0  0
    1.4497   -0.0000    0.0000 C   0  0  0  0  0  4           0  0  0
   -0.3193   -0.0056    2.5204 C   0  0  0  0  0  4           0  0  0
   -1.0721   -1.0028    3.3951 C   0  0  0  0  0  4           0  0  0
   -0.9474   -2.4389    2.8925 C   0  0  0  0  0  4           0  0  0
    0.3013    3.1175   -4.4098 C   0  0  0  0  0  4           0  0  0
   -1.7072   -3.4071    3.7839 C   0  0  0  0  0  4           0  0  0
  1  8  1  0     0  0
  2 23  2  0     0  0
  3 24  2  0     0  0
  4 24  1  0     0  0
  4 25  1  0     0  0
  5 23  1  0     0  0
  6  9  1  0     0  0
  6 10  1  0     0  0
  6 26  1  0     0  0
  7  8  1  0     0  0
  7  9  2  0     0  0
  8 10  2  0     0  0
  9 27  1  0     0  0
 10 25  1  0     0  0
 11 12  1  0     0  0
 11 13  1  0     0  0
 11 15  2  0     0  0
 12 16  2  0     0  0
 12 17  1  0     0  0
 13 18  2  0     0  0
 13 23  1  0     0  0
 14 19  2  0     0  0
 14 20  1  0     0  0
 14 26  1  0     0  0
 15 21  1  0     0  0
 16 19  1  0     0  0
 17 20  2  0     0  0
 18 22  1  0     0  0
 21 22  2  0     0  0
 24 30  1  0     0  0
 27 28  1  0     0  0
 28 29  1  0     0  0
 29 31  1  0     0  0
M  END
> <standard_type>
pIC50

> <# Confs.>
25

> <canonical_smiles>
CCCCC1=NC(Cl)=C(COC(C)=O)N1CC2=CC=C(C3=CC=CC=C3C(O)=O)C=C2

> <standard_relation>
=

> <Publication_ID>
nan

> <predicted_activity_value>
6.920818753952375

> <actual_activity_value>
5.47755576649368

> <Compound>
18

> <standard_units>
nM

> hash
17930109462890095984

$$$$
17
XXILIB    08252103513D 0   0.00000     0.00000

 31 33  0     1  0            999 V2000
   -3.5602    0.0114   -1.4766 Cl  0  0  0  0  0  1           0  0  0
    5.4297   -4.6585    2.5398 O   0  0  0  0  0  2           0  0  0
    0.5099   -0.6441   -5.0094 O   0  0  0  0  0  2           0  0  0
   -0.2086   -1.3273   -2.9248 O   0  0  0  0  0  2           0  0  0
    6.4442   -4.1261    0.5829 O   0  0  0  0  0  2           0  0  0
    0.0000   -0.0000    0.0000 N   0  0  0  0  0  3           0  0  0
   -2.0836    0.0005    0.7718 N   0  0  0  0  0  3           0  0  0
   -2.0993    0.0105   -0.5980 C   0  0  0  0  0  4           0  0  0
   -0.8119    0.0000    1.1177 C   0  0  0  0  0  4           0  0  0
   -0.8166    0.0194   -1.1139 C   0  0  0  0  0  4           0  0  0
    3.5038   -5.4181   -0.0021 C   0  0  0  0  0  4           0  0  0
    2.9850   -4.0443   -0.0010 C   0  0  0  0  0  4           0  0  0
    4.7388   -5.7878    0.5753 C   0  0  0  0  0  4           0  0  0
    1.9918   -1.3967    0.0000 C   0  0  0  0  0  4           0  0  0
    2.7573   -6.4341   -0.6330 C   0  0  0  0  0  4           0  0  0
    2.7429   -3.3692    1.2047 C   0  0  0  0  0  4           0  0  0
    2.7185   -3.3772   -1.2058 C   0  0  0  0  0  4           0  0  0
    5.2007   -7.1123    0.5143 C   0  0  0  0  0  4           0  0  0
    2.2497   -2.0614    1.2052 C   0  0  0  0  0  4           0  0  0
    2.2251   -2.0695   -1.2056 C   0  0  0  0  0  4           0  0  0
    3.2193   -7.7514   -0.6946 C   0  0  0  0  0  4           0  0  0
    4.4416   -8.0888   -0.1245 C   0  0  0  0  0  4           0  0  0
    5.5554   -4.8180    1.3341 C   0  0  0  0  0  4           0  0  0
    0.2262   -1.5178   -4.2007 C   0  0  0  0  0  4           0  0  0
   -0.3373    0.0390   -2.5151 C   0  0  0  0  0  4           0  0  0
    1.4497    0.0000   -0.0000 C   0  0  0  0  0  4           0  0  0
   -0.3193   -0.0056    2.5204 C   0  0  0  0  0  4           0  0  0
   -1.0646    0.9923    3.4005 C   0  0  0  0  0  4           0  0  0
   -0.9293    2.4302    2.9057 C   0  0  0  0  0  4           0  0  0
    0.3445   -2.9856   -4.4804 C   0  0  0  0  0  4           0  0  0
   -1.6819    3.3992    3.8024 C   0  0  0  0  0  4           0  0  0
  1  8  1  0     0  0
  2 23  2  0     0  0
  3 24  2  0     0  0
  4 24  1  0     0  0
  4 25  1  0     0  0
  5 23  1  0     0  0
  6  9  1  0     0  0
  6 10  1  0     0  0
  6 26  1  0     0  0
  7  8  1  0     0  0
  7  9  2  0     0  0
  8 10  2  0     0  0
  9 27  1  0     0  0
 10 25  1  0     0  0
 11 12  1  0     0  0
 11 13  1  0     0  0
 11 15  2  0     0  0
 12 16  2  0     0  0
 12 17  1  0     0  0
 13 18  2  0     0  0
 13 23  1  0     0  0
 14 19  2  0     0  0
 14 20  1  0     0  0
 14 26  1  0     0  0
 15 21  1  0     0  0
 16 19  1  0     0  0
 17 20  2  0     0  0
 18 22  1  0     0  0
 21 22  2  0     0  0
 24 30  1  0     0  0
 27 28  1  0     0  0
 28 29  1  0     0  0
 29 31  1  0     0  0
M  END
> <standard_type>
pIC50

> <# Confs.>
25

> <canonical_smiles>
CCCCC1=NC(Cl)=C(COC(C)=O)N1CC2=CC=C(C3=CC=CC=C3C(O)=O)C=C2

> <standard_relation>
=

> <Publication_ID>
nan

> <predicted_activity_value>
6.920818753952375

> <actual_activity_value>
5.47755576649368

> <Compound>
18

> <standard_units>
nM

> hash
17930109462890095984

$$$$
17
XXILIB    08252103513D 0   0.00000     0.00000

 31 33  0     1  0            999 V2000
   -3.5602    0.0114   -1.4766 Cl  0  0  0  0  0  1           0  0  0
    5.9550    3.8911    1.2970 O   0  0  0  0  0  2           0  0  0
    0.5099   -0.6441   -5.0094 O   0  0  0  0  0  2           0  0  0
   -0.2086   -1.3273   -2.9248 O   0  0  0  0  0  2           0  0  0
    5.2681    5.1311    3.0669 O   0  0  0  0  0  2           0  0  0
    0.0000   -0.0000    0.0000 N   0  0  0  0  0  3           0  0  0
   -2.0836    0.0005    0.7718 N   0  0  0  0  0  3           0  0  0
   -2.0993    0.0105   -0.5980 C   0  0  0  0  0  4           0  0  0
   -0.8119    0.0000    1.1177 C   0  0  0  0  0  4           0  0  0
   -0.8166    0.0194   -1.1139 C   0  0  0  0  0  4           0  0  0
    3.5774    5.3896    0.0306 C   0  0  0  0  0  4           0  0  0
    3.0365    4.0243    0.0219 C   0  0  0  0  0  4           0  0  0
    4.6291    5.8084    0.8754 C   0  0  0  0  0  4           0  0  0
    1.9918    1.3967    0.0000 C   0  0  0  0  0  4           0  0  0
    3.0118    6.3582   -0.8235 C   0  0  0  0  0  4           0  0  0
    1.9701    3.6691    0.8613 C   0  0  0  0  0  4           0  0  0
    3.5755    3.0446   -0.8250 C   0  0  0  0  0  4           0  0  0
    5.0832    7.1369    0.8645 C   0  0  0  0  0  4           0  0  0
    1.4552    2.3697    0.8522 C   0  0  0  0  0  4           0  0  0
    3.0610    1.7450   -0.8342 C   0  0  0  0  0  4           0  0  0
    3.4635    7.6804   -0.8317 C   0  0  0  0  0  4           0  0  0
    4.4957    8.0697    0.0143 C   0  0  0  0  0  4           0  0  0
    5.3464    4.8526    1.7443 C   0  0  0  0  0  4           0  0  0
    0.2262   -1.5178   -4.2007 C   0  0  0  0  0  4           0  0  0
   -0.3373    0.0390   -2.5151 C   0  0  0  0  0  4           0  0  0
    1.4497   -0.0000    0.0000 C   0  0  0  0  0  4           0  0  0
   -0.3193   -0.0056    2.5204 C   0  0  0  0  0  4           0  0  0
   -1.0721   -1.0028    3.3951 C   0  0  0  0  0  4           0  0  0
   -0.5726   -1.0153    4.8377 C   0  0  0  0  0  4           0  0  0
    0.3445   -2.9856   -4.4804 C   0  0  0  0  0  4           0  0  0
   -1.3414   -2.0175    5.6828 C   0  0  0  0  0  4           0  0  0
  1  8  1  0     0  0
  2 23  2  0     0  0
  3 24  2  0     0  0
  4 24  1  0     0  0
  4 25  1  0     0  0
  5 23  1  0     0  0
  6  9  1  0     0  0
  6 10  1  0     0  0
  6 26  1  0     0  0
  7  8  1  0     0  0
  7  9  2  0     0  0
  8 10  2  0     0  0
  9 27  1  0     0  0
 10 25  1  0     0  0
 11 12  1  0     0  0
 11 13  1  0     0  0
 11 15  2  0     0  0
 12 16  2  0     0  0
 12 17  1  0     0  0
 13 18  2  0     0  0
 13 23  1  0     0  0
 14 19  2  0     0  0
 14 20  1  0     0  0
 14 26  1  0     0  0
 15 21  1  0     0  0
 16 19  1  0     0  0
 17 20  2  0     0  0
 18 22  1  0     0  0
 21 22  2  0     0  0
 24 30  1  0     0  0
 27 28  1  0     0  0
 28 29  1  0     0  0
 29 31  1  0     0  0
M  END
> <standard_type>
pIC50

> <# Confs.>
25

> <canonical_smiles>
CCCCC1=NC(Cl)=C(COC(C)=O)N1CC2=CC=C(C3=CC=CC=C3C(O)=O)C=C2

> <standard_relation>
=

> <Publication_ID>
nan

> <predicted_activity_value>
6.920818753952375

> <actual_activity_value>
5.47755576649368

> <Compound>
18

> <standard_units>
nM

> hash
17930109462890095984

$$$$
17
XXILIB    08252103513D 0   0.00000     0.00000

 31 33  0     1  0            999 V2000
   -3.5602    0.0114   -1.4766 Cl  0  0  0  0  0  1           0  0  0
    6.5480   -4.0109   -0.0139 O   0  0  0  0  0  2           0  0  0
    0.5099   -0.6441   -5.0094 O   0  0  0  0  0  2           0  0  0
   -0.2086   -1.3273   -2.9248 O   0  0  0  0  0  2           0  0  0
    5.9210   -4.4765    2.1150 O   0  0  0  0  0  2           0  0  0
    0.0000   -0.0000    0.0000 N   0  0  0  0  0  3           0  0  0
   -2.0836    0.0005    0.7718 N   0  0  0  0  0  3           0  0  0
   -2.0993    0.0105   -0.5980 C   0  0  0  0  0  4           0  0  0
   -0.8119    0.0000    1.1177 C   0  0  0  0  0  4           0  0  0
   -0.8166    0.0194   -1.1139 C   0  0  0  0  0  4           0  0  0
    3.5746   -5.3906    0.0336 C   0  0  0  0  0  4           0  0  0
    3.0352   -4.0248    0.0233 C   0  0  0  0  0  4           0  0  0
    4.9207   -5.6973    0.3321 C   0  0  0  0  0  4           0  0  0
    1.9918   -1.3967    0.0000 C   0  0  0  0  0  4           0  0  0
    2.7261   -6.4670   -0.2968 C   0  0  0  0  0  4           0  0  0
    3.5583   -3.0527   -0.8424 C   0  0  0  0  0  4           0  0  0
    1.9858   -3.6616    0.8803 C   0  0  0  0  0  4           0  0  0
    5.3892   -7.0203    0.2933 C   0  0  0  0  0  4           0  0  0
    3.0442   -1.7530   -0.8522 C   0  0  0  0  0  4           0  0  0
    1.4716   -2.3619    0.8708 C   0  0  0  0  0  4           0  0  0
    3.1944   -7.7829   -0.3369 C   0  0  0  0  0  4           0  0  0
    4.5257   -8.0583   -0.0456 C   0  0  0  0  0  4           0  0  0
    5.8688   -4.6537    0.7738 C   0  0  0  0  0  4           0  0  0
    0.2262   -1.5178   -4.2007 C   0  0  0  0  0  4           0  0  0
   -0.3373    0.0390   -2.5151 C   0  0  0  0  0  4           0  0  0
    1.4497    0.0000   -0.0000 C   0  0  0  0  0  4           0  0  0
   -0.3193   -0.0056    2.5204 C   0  0  0  0  0  4           0  0  0
   -1.0646    0.9923    3.4005 C   0  0  0  0  0  4           0  0  0
   -0.5651    0.9933    4.8432 C   0  0  0  0  0  4           0  0  0
    0.3445   -2.9856   -4.4804 C   0  0  0  0  0  4           0  0  0
   -1.3264    1.9966    5.6937 C   0  0  0  0  0  4           0  0  0
  1  8  1  0     0  0
  2 23  2  0     0  0
  3 24  2  0     0  0
  4 24  1  0     0  0
  4 25  1  0     0  0
  5 23  1  0     0  0
  6  9  1  0     0  0
  6 10  1  0     0  0
  6 26  1  0     0  0
  7  8  1  0     0  0
  7  9  2  0     0  0
  8 10  2  0     0  0
  9 27  1  0     0  0
 10 25  1  0     0  0
 11 12  1  0     0  0
 11 13  1  0     0  0
 11 15  2  0     0  0
 12 16  2  0     0  0
 12 17  1  0     0  0
 13 18  2  0     0  0
 13 23  1  0     0  0
 14 19  2  0     0  0
 14 20  1  0     0  0
 14 26  1  0     0  0
 15 21  1  0     0  0
 16 19  1  0     0  0
 17 20  2  0     0  0
 18 22  1  0     0  0
 21 22  2  0     0  0
 24 30  1  0     0  0
 27 28  1  0     0  0
 28 29  1  0     0  0
 29 31  1  0     0  0
M  END
> <standard_type>
pIC50

> <# Confs.>
25

> <canonical_smiles>
CCCCC1=NC(Cl)=C(COC(C)=O)N1CC2=CC=C(C3=CC=CC=C3C(O)=O)C=C2

> <standard_relation>
=

> <Publication_ID>
nan

> <predicted_activity_value>
6.920818753952375

> <actual_activity_value>
5.47755576649368

> <Compound>
18

> <standard_units>
nM

> hash
17930109462890095984

$$$$
17
XXILIB    08252103513D 0   0.00000     0.00000

 31 33  0     1  0            999 V2000
   -3.5602    0.0114   -1.4766 Cl  0  0  0  0  0  1           0  0  0
    3.8813   -5.2594   -3.2277 O   0  0  0  0  0  2           0  0  0
    0.5144    0.7915   -4.9878 O   0  0  0  0  0  2           0  0  0
   -0.1999    1.4161   -2.8834 O   0  0  0  0  0  2           0  0  0
    1.7942   -5.9307   -2.6490 O   0  0  0  0  0  2           0  0  0
    0.0000   -0.0000    0.0000 N   0  0  0  0  0  3           0  0  0
   -2.0836    0.0005    0.7718 N   0  0  0  0  0  3           0  0  0
   -2.0993    0.0105   -0.5980 C   0  0  0  0  0  4           0  0  0
   -0.8119    0.0000    1.1177 C   0  0  0  0  0  4           0  0  0
   -0.8166    0.0194   -1.1139 C   0  0  0  0  0  4           0  0  0
    3.5746   -5.3906    0.0336 C   0  0  0  0  0  4           0  0  0
    3.0352   -4.0248    0.0233 C   0  0  0  0  0  4           0  0  0
    3.5707   -6.2411   -1.0943 C   0  0  0  0  0  4           0  0  0
    1.9918   -1.3967    0.0000 C   0  0  0  0  0  4           0  0  0
    4.1048   -5.9112    1.2317 C   0  0  0  0  0  4           0  0  0
    3.5583   -3.0527   -0.8424 C   0  0  0  0  0  4           0  0  0
    1.9858   -3.6616    0.8803 C   0  0  0  0  0  4           0  0  0
    4.0698   -7.5511   -1.0168 C   0  0  0  0  0  4           0  0  0
    3.0442   -1.7530   -0.8522 C   0  0  0  0  0  4           0  0  0
    1.4716   -2.3619    0.8708 C   0  0  0  0  0  4           0  0  0
    4.5992   -7.2159    1.3077 C   0  0  0  0  0  4           0  0  0
    4.5781   -8.0358    0.1851 C   0  0  0  0  0  4           0  0  0
    3.1176   -5.7641   -2.4172 C   0  0  0  0  0  4           0  0  0
    0.2361    1.6422   -4.1531 C   0  0  0  0  0  4           0  0  0
   -0.3373    0.0390   -2.5151 C   0  0  0  0  0  4           0  0  0
    1.4497    0.0000   -0.0000 C   0  0  0  0  0  4           0  0  0
   -0.3193   -0.0056    2.5204 C   0  0  0  0  0  4           0  0  0
   -1.0721   -1.0028    3.3951 C   0  0  0  0  0  4           0  0  0
   -0.5726   -1.0153    4.8377 C   0  0  0  0  0  4           0  0  0
    0.3013    3.1175   -4.4098 C   0  0  0  0  0  4           0  0  0
   -1.3414   -2.0175    5.6828 C   0  0  0  0  0  4           0  0  0
  1  8  1  0     0  0
  2 23  2  0     0  0
  3 24  2  0     0  0
  4 24  1  0     0  0
  4 25  1  0     0  0
  5 23  1  0     0  0
  6  9  1  0     0  0
  6 10  1  0     0  0
  6 26  1  0     0  0
  7  8  1  0     0  0
  7  9  2  0     0  0
  8 10  2  0     0  0
  9 27  1  0     0  0
 10 25  1  0     0  0
 11 12  1  0     0  0
 11 13  1  0     0  0
 11 15  2  0     0  0
 12 16  2  0     0  0
 12 17  1  0     0  0
 13 18  2  0     0  0
 13 23  1  0     0  0
 14 19  2  0     0  0
 14 20  1  0     0  0
 14 26  1  0     0  0
 15 21  1  0     0  0
 16 19  1  0     0  0
 17 20  2  0     0  0
 18 22  1  0     0  0
 21 22  2  0     0  0
 24 30  1  0     0  0
 27 28  1  0     0  0
 28 29  1  0     0  0
 29 31  1  0     0  0
M  END
> <standard_type>
pIC50

> <# Confs.>
25

> <canonical_smiles>
CCCCC1=NC(Cl)=C(COC(C)=O)N1CC2=CC=C(C3=CC=CC=C3C(O)=O)C=C2

> <standard_relation>
=

> <Publication_ID>
nan

> <predicted_activity_value>
6.920818753952375

> <actual_activity_value>
5.47755576649368

> <Compound>
18

> <standard_units>
nM

> hash
17930109462890095984

$$$$
17
XXILIB    08252103513D 0   0.00000     0.00000

 31 33  0     1  0            999 V2000
   -3.5602    0.0114   -1.4766 Cl  0  0  0  0  0  1           0  0  0
    3.4570   -5.2105   -3.3018 O   0  0  0  0  0  2           0  0  0
    0.5144    0.7915   -4.9878 O   0  0  0  0  0  2           0  0  0
   -0.1999    1.4161   -2.8834 O   0  0  0  0  0  2           0  0  0
    5.5166   -4.6334   -2.5488 O   0  0  0  0  0  2           0  0  0
    0.0000   -0.0000    0.0000 N   0  0  0  0  0  3           0  0  0
   -2.0836    0.0005    0.7718 N   0  0  0  0  0  3           0  0  0
   -2.0993    0.0105   -0.5980 C   0  0  0  0  0  4           0  0  0
   -0.8119    0.0000    1.1177 C   0  0  0  0  0  4           0  0  0
   -0.8166    0.0194   -1.1139 C   0  0  0  0  0  4           0  0  0
    3.5774   -5.3896   -0.0306 C   0  0  0  0  0  4           0  0  0
    3.0365   -4.0243   -0.0219 C   0  0  0  0  0  4           0  0  0
    4.1353   -6.0021   -1.1746 C   0  0  0  0  0  4           0  0  0
    1.9918   -1.3967   -0.0000 C   0  0  0  0  0  4           0  0  0
    3.5214   -6.1584    1.1498 C   0  0  0  0  0  4           0  0  0
    1.9701   -3.6691   -0.8613 C   0  0  0  0  0  4           0  0  0
    3.5755   -3.0446    0.8250 C   0  0  0  0  0  4           0  0  0
    4.6067   -7.3240   -1.1327 C   0  0  0  0  0  4           0  0  0
    1.4552   -2.3697   -0.8522 C   0  0  0  0  0  4           0  0  0
    3.0610   -1.7450    0.8342 C   0  0  0  0  0  4           0  0  0
    3.9891   -7.4745    1.1893 C   0  0  0  0  0  4           0  0  0
    4.5278   -8.0574    0.0479 C   0  0  0  0  0  4           0  0  0
    4.3192   -5.2551   -2.4360 C   0  0  0  0  0  4           0  0  0
    0.2361    1.6422   -4.1531 C   0  0  0  0  0  4           0  0  0
   -0.3373    0.0390   -2.5151 C   0  0  0  0  0  4           0  0  0
    1.4497    0.0000   -0.0000 C   0  0  0  0  0  4           0  0  0
   -0.3193   -0.0056    2.5204 C   0  0  0  0  0  4           0  0  0
   -0.1324   -1.4186    3.0634 C   0  0  0  0  0  4           0  0  0
    0.3734   -1.4340    4.5038 C   0  0  0  0  0  4           0  0  0
    0.3013    3.1175   -4.4098 C   0  0  0  0  0  4           0  0  0
    0.5492   -2.8541    5.0154 C   0  0  0  0  0  4           0  0  0
  1  8  1  0     0  0
  2 23  2  0     0  0
  3 24  2  0     0  0
  4 24  1  0     0  0
  4 25  1  0     0  0
  5 23  1  0     0  0
  6  9  1  0     0  0
  6 10  1  0     0  0
  6 26  1  0     0  0
  7  8  1  0     0  0
  7  9  2  0     0  0
  8 10  2  0     0  0
  9 27  1  0     0  0
 10 25  1  0     0  0
 11 12  1  0     0  0
 11 13  1  0     0  0
 11 15  2  0     0  0
 12 16  2  0     0  0
 12 17  1  0     0  0
 13 18  2  0     0  0
 13 23  1  0     0  0
 14 19  2  0     0  0
 14 20  1  0     0  0
 14 26  1  0     0  0
 15 21  1  0     0  0
 16 19  1  0     0  0
 17 20  2  0     0  0
 18 22  1  0     0  0
 21 22  2  0     0  0
 24 30  1  0     0  0
 27 28  1  0     0  0
 28 29  1  0     0  0
 29 31  1  0     0  0
M  END
> <standard_type>
pIC50

> <# Confs.>
25

> <canonical_smiles>
CCCCC1=NC(Cl)=C(COC(C)=O)N1CC2=CC=C(C3=CC=CC=C3C(O)=O)C=C2

> <standard_relation>
=

> <Publication_ID>
nan

> <predicted_activity_value>
6.920818753952375

> <actual_activity_value>
5.47755576649368

> <Compound>
18

> <standard_units>
nM

> hash
17930109462890095984

$$$$
13
XXILIB    08252103513D 0   0.00000     0.00000

 30 32  0     1  0            999 V2000
    5.0080   -1.4815   -0.1021 Cl  0  0  0  0  0  1           0  0  0
   -1.9861    0.1214    5.3177 O   0  0  0  0  0  2           0  0  0
   -5.3531   -1.6954    5.9458 O   0  0  0  0  0  2           0  0  0
   -5.8372    0.4543    6.5291 O   0  0  0  0  0  2           0  0  0
    1.6760   -2.9488    1.3002 O   0  0  0  0  0  2           0  0  0
    1.4519   -0.0000    0.0000 N   0  0  0  0  0  3           0  0  0
    3.5357    0.7699   -0.0300 N   0  0  0  0  0  3           0  0  0
    3.5498   -0.5999   -0.0532 C   0  0  0  0  0  4           0  0  0
   -1.5169   -0.0027    4.0399 C   0  0  0  0  0  4           0  0  0
    2.2647    1.1169   -0.0000 C   0  0  0  0  0  4           0  0  0
    2.2666   -1.1149   -0.0368 C   0  0  0  0  0  4           0  0  0
   -4.1177   -0.6124    7.6737 C   0  0  0  0  0  4           0  0  0
   -2.7550   -0.7888    7.3728 C   0  0  0  0  0  4           0  0  0
   -0.5415    0.0000    1.3968 C   0  0  0  0  0  4           0  0  0
   -1.2868   -1.2088    3.3735 C   0  0  0  0  0  4           0  0  0
   -1.2590    1.2026    3.3800 C   0  0  0  0  0  4           0  0  0
   -4.5279   -0.3107    8.9806 C   0  0  0  0  0  4           0  0  0
   -1.8213   -0.6484    8.4132 C   0  0  0  0  0  4           0  0  0
   -0.7996   -1.2048    2.0624 C   0  0  0  0  0  4           0  0  0
   -0.7736    1.2049    2.0706 C   0  0  0  0  0  4           0  0  0
   -3.5837   -0.1833    9.9975 C   0  0  0  0  0  4           0  0  0
   -2.2317   -0.3523    9.7144 C   0  0  0  0  0  4           0  0  0
   -5.1494   -0.7048    6.6269 C   0  0  0  0  0  4           0  0  0
   -2.2515   -1.1047    5.9953 C   0  0  0  0  0  4           0  0  0
    1.7864   -2.5134   -0.0479 C   0  0  0  0  0  4           0  0  0
    0.0000    0.0000    0.0000 C   0  0  0  0  0  4           0  0  0
    1.7718    2.5209    0.0303 C   0  0  0  0  0  4           0  0  0
    2.5015    3.4126   -0.9695 C   0  0  0  0  0  4           0  0  0
    2.3709    2.9726   -2.4284 C   0  0  0  0  0  4           0  0  0
    3.1117    3.8866   -3.3932 C   0  0  0  0  0  4           0  0  0
  1  8  1  0     0  0
  2  9  1  0     0  0
  2 24  1  0     0  0
  3 23  2  0     0  0
  4 23  1  0     0  0
  5 25  1  0     0  0
  6 10  1  0     0  0
  6 11  1  0     0  0
  6 26  1  0     0  0
  7  8  1  0     0  0
  7 10  2  0     0  0
  8 11  2  0     0  0
  9 15  2  0     0  0
  9 16  1  0     0  0
 10 27  1  0     0  0
 11 25  1  0     0  0
 12 13  1  0     0  0
 12 17  2  0     0  0
 12 23  1  0     0  0
 13 18  2  0     0  0
 13 24  1  0     0  0
 14 19  2  0     0  0
 14 20  1  0     0  0
 14 26  1  0     0  0
 15 19  1  0     0  0
 16 20  2  0     0  0
 17 21  1  0     0  0
 18 22  1  0     0  0
 21 22  2  0     0  0
 27 28  1  0     0  0
 28 29  1  0     0  0
 29 30  1  0     0  0
M  END
> <standard_type>
pIC50

> <# Confs.>
25

> <canonical_smiles>
ClC(N=C1CCCC)=C(CO)N1CC2=CC=C(OCC3=CC=CC=C3C(O)=O)C=C2

> <standard_relation>
=

> <Publication_ID>
nan

> <predicted_activity_value>
5.920818753952375

> <actual_activity_value>
6.036212172654444

> <Compound>
14

> <standard_units>
nM

> hash
17989980845622856130

$$$$
13
XXILIB    08252103513D 0   0.00000     0.00000

 30 32  0     1  0            999 V2000
    5.0080   -1.4815   -0.1021 Cl  0  0  0  0  0  1           0  0  0
   -1.9861    0.1214    5.3177 O   0  0  0  0  0  2           0  0  0
   -1.4619   -3.5686    7.8301 O   0  0  0  0  0  2           0  0  0
   -0.1977   -2.2121    9.1557 O   0  0  0  0  0  2           0  0  0
    1.6760   -2.9488    1.3002 O   0  0  0  0  0  2           0  0  0
    1.4519   -0.0000    0.0000 N   0  0  0  0  0  3           0  0  0
    3.5357    0.7699   -0.0300 N   0  0  0  0  0  3           0  0  0
    3.5498   -0.5999   -0.0532 C   0  0  0  0  0  4           0  0  0
   -1.5169   -0.0027    4.0399 C   0  0  0  0  0  4           0  0  0
    2.2647    1.1169   -0.0000 C   0  0  0  0  0  4           0  0  0
    2.2666   -1.1149   -0.0368 C   0  0  0  0  0  4           0  0  0
   -2.3027   -1.4499    8.5292 C   0  0  0  0  0  4           0  0  0
   -2.7550   -0.7888    7.3728 C   0  0  0  0  0  4           0  0  0
   -0.5415    0.0000    1.3968 C   0  0  0  0  0  4           0  0  0
   -1.2868   -1.2088    3.3735 C   0  0  0  0  0  4           0  0  0
   -1.2590    1.2026    3.3800 C   0  0  0  0  0  4           0  0  0
   -2.8167   -1.1158    9.7907 C   0  0  0  0  0  4           0  0  0
   -3.7361    0.2063    7.5173 C   0  0  0  0  0  4           0  0  0
   -0.7996   -1.2048    2.0624 C   0  0  0  0  0  4           0  0  0
   -0.7736    1.2049    2.0706 C   0  0  0  0  0  4           0  0  0
   -3.7844   -0.1202    9.9096 C   0  0  0  0  0  4           0  0  0
   -4.2435    0.5406    8.7743 C   0  0  0  0  0  4           0  0  0
   -1.3056   -2.5308    8.4505 C   0  0  0  0  0  4           0  0  0
   -2.2515   -1.1047    5.9953 C   0  0  0  0  0  4           0  0  0
    1.7864   -2.5134   -0.0479 C   0  0  0  0  0  4           0  0  0
    0.0000    0.0000    0.0000 C   0  0  0  0  0  4           0  0  0
    1.7718    2.5209    0.0303 C   0  0  0  0  0  4           0  0  0
    2.5015    3.4126   -0.9695 C   0  0  0  0  0  4           0  0  0
    2.3709    2.9726   -2.4284 C   0  0  0  0  0  4           0  0  0
    3.1117    3.8866   -3.3932 C   0  0  0  0  0  4           0  0  0
  1  8  1  0     0  0
  2  9  1  0     0  0
  2 24  1  0     0  0
  3 23  2  0     0  0
  4 23  1  0     0  0
  5 25  1  0     0  0
  6 10  1  0     0  0
  6 11  1  0     0  0
  6 26  1  0     0  0
  7  8  1  0     0  0
  7 10  2  0     0  0
  8 11  2  0     0  0
  9 15  2  0     0  0
  9 16  1  0     0  0
 10 27  1  0     0  0
 11 25  1  0     0  0
 12 13  1  0     0  0
 12 17  2  0     0  0
 12 23  1  0     0  0
 13 18  2  0     0  0
 13 24  1  0     0  0
 14 19  2  0     0  0
 14 20  1  0     0  0
 14 26  1  0     0  0
 15 19  1  0     0  0
 16 20  2  0     0  0
 17 21  1  0     0  0
 18 22  1  0     0  0
 21 22  2  0     0  0
 27 28  1  0     0  0
 28 29  1  0     0  0
 29 30  1  0     0  0
M  END
> <standard_type>
pIC50

> <# Confs.>
25

> <canonical_smiles>
ClC(N=C1CCCC)=C(CO)N1CC2=CC=C(OCC3=CC=CC=C3C(O)=O)C=C2

> <standard_relation>
=

> <Publication_ID>
nan

> <predicted_activity_value>
5.920818753952375

> <actual_activity_value>
6.036212172654444

> <Compound>
14

> <standard_units>
nM

> hash
17989980845622856130

$$$$
13
XXILIB    08252103513D 0   0.00000     0.00000

 30 32  0     1  0            999 V2000
    5.0080   -1.4815   -0.1021 Cl  0  0  0  0  0  1           0  0  0
   -1.9861    0.1214    5.3177 O   0  0  0  0  0  2           0  0  0
   -4.1542   -3.4941    6.7965 O   0  0  0  0  0  2           0  0  0
   -5.9184   -2.0790    7.0804 O   0  0  0  0  0  2           0  0  0
    1.6760   -2.9488    1.3002 O   0  0  0  0  0  2           0  0  0
    1.4519   -0.0000    0.0000 N   0  0  0  0  0  3           0  0  0
    3.5357    0.7699   -0.0300 N   0  0  0  0  0  3           0  0  0
    3.5498   -0.5999   -0.0532 C   0  0  0  0  0  4           0  0  0
   -1.5169   -0.0027    4.0399 C   0  0  0  0  0  4           0  0  0
    2.2647    1.1169   -0.0000 C   0  0  0  0  0  4           0  0  0
    2.2666   -1.1149   -0.0368 C   0  0  0  0  0  4           0  0  0
   -3.8641   -1.4299    7.9538 C   0  0  0  0  0  4           0  0  0
   -2.7550   -0.7888    7.3728 C   0  0  0  0  0  4           0  0  0
   -0.5415    0.0000    1.3968 C   0  0  0  0  0  4           0  0  0
   -1.2868   -1.2088    3.3735 C   0  0  0  0  0  4           0  0  0
   -1.2590    1.2026    3.3800 C   0  0  0  0  0  4           0  0  0
   -4.2932   -1.0863    9.2443 C   0  0  0  0  0  4           0  0  0
   -2.0970    0.2049    8.1167 C   0  0  0  0  0  4           0  0  0
   -0.7996   -1.2048    2.0624 C   0  0  0  0  0  4           0  0  0
   -0.7736    1.2049    2.0706 C   0  0  0  0  0  4           0  0  0
   -3.6200   -0.1022    9.9656 C   0  0  0  0  0  4           0  0  0
   -2.5229    0.5426    9.4028 C   0  0  0  0  0  4           0  0  0
   -4.6271   -2.4526    7.2186 C   0  0  0  0  0  4           0  0  0
   -2.2515   -1.1047    5.9953 C   0  0  0  0  0  4           0  0  0
    1.7864   -2.5134   -0.0479 C   0  0  0  0  0  4           0  0  0
    0.0000    0.0000    0.0000 C   0  0  0  0  0  4           0  0  0
    1.7718    2.5209    0.0303 C   0  0  0  0  0  4           0  0  0
    2.5015    3.4126   -0.9695 C   0  0  0  0  0  4           0  0  0
    2.3709    2.9726   -2.4284 C   0  0  0  0  0  4           0  0  0
    3.1117    3.8866   -3.3932 C   0  0  0  0  0  4           0  0  0
  1  8  1  0     0  0
  2  9  1  0     0  0
  2 24  1  0     0  0
  3 23  2  0     0  0
  4 23  1  0     0  0
  5 25  1  0     0  0
  6 10  1  0     0  0
  6 11  1  0     0  0
  6 26  1  0     0  0
  7  8  1  0     0  0
  7 10  2  0     0  0
  8 11  2  0     0  0
  9 15  2  0     0  0
  9 16  1  0     0  0
 10 27  1  0     0  0
 11 25  1  0     0  0
 12 13  1  0     0  0
 12 17  2  0     0  0
 12 23  1  0     0  0
 13 18  2  0     0  0
 13 24  1  0     0  0
 14 19  2  0     0  0
 14 20  1  0     0  0
 14 26  1  0     0  0
 15 19  1  0     0  0
 16 20  2  0     0  0
 17 21  1  0     0  0
 18 22  1  0     0  0
 21 22  2  0     0  0
 27 28  1  0     0  0
 28 29  1  0     0  0
 29 30  1  0     0  0
M  END
> <standard_type>
pIC50

> <# Confs.>
25

> <canonical_smiles>
ClC(N=C1CCCC)=C(CO)N1CC2=CC=C(OCC3=CC=CC=C3C(O)=O)C=C2

> <standard_relation>
=

> <Publication_ID>
nan

> <predicted_activity_value>
5.920818753952375

> <actual_activity_value>
6.036212172654444

> <Compound>
14

> <standard_units>
nM

> hash
17989980845622856130

$$$$
13
XXILIB    08252103513D 0   0.00000     0.00000

 30 32  0     1  0            999 V2000
    5.0080   -1.4815   -0.1021 Cl  0  0  0  0  0  1           0  0  0
   -1.9861    0.1214    5.3177 O   0  0  0  0  0  2           0  0  0
   -5.3531   -1.6954    5.9458 O   0  0  0  0  0  2           0  0  0
   -5.8372    0.4543    6.5291 O   0  0  0  0  0  2           0  0  0
    1.6760   -2.9488    1.3002 O   0  0  0  0  0  2           0  0  0
    1.4519   -0.0000    0.0000 N   0  0  0  0  0  3           0  0  0
    3.5357    0.7699   -0.0300 N   0  0  0  0  0  3           0  0  0
    3.5498   -0.5999   -0.0532 C   0  0  0  0  0  4           0  0  0
   -1.5169   -0.0027    4.0399 C   0  0  0  0  0  4           0  0  0
    2.2647    1.1169   -0.0000 C   0  0  0  0  0  4           0  0  0
    2.2666   -1.1149   -0.0368 C   0  0  0  0  0  4           0  0  0
   -4.1177   -0.6124    7.6737 C   0  0  0  0  0  4           0  0  0
   -2.7550   -0.7888    7.3728 C   0  0  0  0  0  4           0  0  0
   -0.5415    0.0000    1.3968 C   0  0  0  0  0  4           0  0  0
   -1.2868   -1.2088    3.3735 C   0  0  0  0  0  4           0  0  0
   -1.2590    1.2026    3.3800 C   0  0  0  0  0  4           0  0  0
   -4.5279   -0.3107    8.9806 C   0  0  0  0  0  4           0  0  0
   -1.8213   -0.6484    8.4132 C   0  0  0  0  0  4           0  0  0
   -0.7996   -1.2048    2.0624 C   0  0  0  0  0  4           0  0  0
   -0.7736    1.2049    2.0706 C   0  0  0  0  0  4           0  0  0
   -3.5837   -0.1833    9.9975 C   0  0  0  0  0  4           0  0  0
   -2.2317   -0.3523    9.7144 C   0  0  0  0  0  4           0  0  0
   -5.1494   -0.7048    6.6269 C   0  0  0  0  0  4           0  0  0
   -2.2515   -1.1047    5.9953 C   0  0  0  0  0  4           0  0  0
    1.7864   -2.5134   -0.0479 C   0  0  0  0  0  4           0  0  0
    0.0000    0.0000    0.0000 C   0  0  0  0  0  4           0  0  0
    1.7718    2.5209    0.0303 C   0  0  0  0  0  4           0  0  0
    2.5015    3.4126   -0.9695 C   0  0  0  0  0  4           0  0  0
    2.0351    4.8691   -0.9821 C   0  0  0  0  0  4           0  0  0
    2.7862    5.7247   -1.9913 C   0  0  0  0  0  4           0  0  0
  1  8  1  0     0  0
  2  9  1  0     0  0
  2 24  1  0     0  0
  3 23  2  0     0  0
  4 23  1  0     0  0
  5 25  1  0     0  0
  6 10  1  0     0  0
  6 11  1  0     0  0
  6 26  1  0     0  0
  7  8  1  0     0  0
  7 10  2  0     0  0
  8 11  2  0     0  0
  9 15  2  0     0  0
  9 16  1  0     0  0
 10 27  1  0     0  0
 11 25  1  0     0  0
 12 13  1  0     0  0
 12 17  2  0     0  0
 12 23  1  0     0  0
 13 18  2  0     0  0
 13 24  1  0     0  0
 14 19  2  0     0  0
 14 20  1  0     0  0
 14 26  1  0     0  0
 15 19  1  0     0  0
 16 20  2  0     0  0
 17 21  1  0     0  0
 18 22  1  0     0  0
 21 22  2  0     0  0
 27 28  1  0     0  0
 28 29  1  0     0  0
 29 30  1  0     0  0
M  END
> <standard_type>
pIC50

> <# Confs.>
25

> <canonical_smiles>
ClC(N=C1CCCC)=C(CO)N1CC2=CC=C(OCC3=CC=CC=C3C(O)=O)C=C2

> <standard_relation>
=

> <Publication_ID>
nan

> <predicted_activity_value>
5.920818753952375

> <actual_activity_value>
6.036212172654444

> <Compound>
14

> <standard_units>
nM

> hash
17989980845622856130

$$$$
13
XXILIB    08252103513D 0   0.00000     0.00000

 30 32  0     1  0            999 V2000
    5.0080   -1.4815   -0.1021 Cl  0  0  0  0  0  1           0  0  0
   -2.1174   -0.1214    5.2667 O   0  0  0  0  0  2           0  0  0
   -4.1981    3.5686    6.7693 O   0  0  0  0  0  2           0  0  0
   -6.0255    2.2121    6.8963 O   0  0  0  0  0  2           0  0  0
    1.6760   -2.9488    1.3002 O   0  0  0  0  0  2           0  0  0
    1.4519   -0.0000    0.0000 N   0  0  0  0  0  3           0  0  0
    3.5357    0.7699   -0.0300 N   0  0  0  0  0  3           0  0  0
    3.5498   -0.5999   -0.0532 C   0  0  0  0  0  4           0  0  0
   -1.6027    0.0027    4.0066 C   0  0  0  0  0  4           0  0  0
    2.2647    1.1169   -0.0000 C   0  0  0  0  0  4           0  0  0
    2.2666   -1.1149   -0.0368 C   0  0  0  0  0  4           0  0  0
   -4.0483    1.4499    7.8524 C   0  0  0  0  0  4           0  0  0
   -2.9347    0.7888    7.3031 C   0  0  0  0  0  4           0  0  0
   -0.5415    0.0000    1.3968 C   0  0  0  0  0  4           0  0  0
   -1.3234    1.2088    3.3593 C   0  0  0  0  0  4           0  0  0
   -1.3484   -1.2026    3.3454 C   0  0  0  0  0  4           0  0  0
   -4.5190    1.1158    9.1308 C   0  0  0  0  0  4           0  0  0
   -2.3074   -0.2063    8.0712 C   0  0  0  0  0  4           0  0  0
   -0.7996    1.2048    2.0624 C   0  0  0  0  0  4           0  0  0
   -0.8243   -1.2049    2.0510 C   0  0  0  0  0  4           0  0  0
   -3.8843    0.1202    9.8709 C   0  0  0  0  0  4           0  0  0
   -2.7799   -0.5406    9.3418 C   0  0  0  0  0  4           0  0  0
   -4.7318    2.5308    7.1222 C   0  0  0  0  0  4           0  0  0
   -2.3781    1.1047    5.9462 C   0  0  0  0  0  4           0  0  0
    1.7864   -2.5134   -0.0479 C   0  0  0  0  0  4           0  0  0
    0.0000   -0.0000    0.0000 C   0  0  0  0  0  4           0  0  0
    1.7718    2.5209    0.0303 C   0  0  0  0  0  4           0  0  0
    2.5015    3.4126   -0.9695 C   0  0  0  0  0  4           0  0  0
    2.3709    2.9726   -2.4284 C   0  0  0  0  0  4           0  0  0
    3.1117    3.8866   -3.3932 C   0  0  0  0  0  4           0  0  0
  1  8  1  0     0  0
  2  9  1  0     0  0
  2 24  1  0     0  0
  3 23  2  0     0  0
  4 23  1  0     0  0
  5 25  1  0     0  0
  6 10  1  0     0  0
  6 11  1  0     0  0
  6 26  1  0     0  0
  7  8  1  0     0  0
  7 10  2  0     0  0
  8 11  2  0     0  0
  9 15  2  0     0  0
  9 16  1  0     0  0
 10 27  1  0     0  0
 11 25  1  0     0  0
 12 13  1  0     0  0
 12 17  2  0     0  0
 12 23  1  0     0  0
 13 18  2  0     0  0
 13 24  1  0     0  0
 14 19  2  0     0  0
 14 20  1  0     0  0
 14 26  1  0     0  0
 15 19  1  0     0  0
 16 20  2  0     0  0
 17 21  1  0     0  0
 18 22  1  0     0  0
 21 22  2  0     0  0
 27 28  1  0     0  0
 28 29  1  0     0  0
 29 30  1  0     0  0
M  END
> <standard_type>
pIC50

> <# Confs.>
25

> <canonical_smiles>
ClC(N=C1CCCC)=C(CO)N1CC2=CC=C(OCC3=CC=CC=C3C(O)=O)C=C2

> <standard_relation>
=

> <Publication_ID>
nan

> <predicted_activity_value>
5.920818753952375

> <actual_activity_value>
6.036212172654444

> <Compound>
14

> <standard_units>
nM

> hash
17989980845622856130

$$$$
13
XXILIB    08252103513D 0   0.00000     0.00000

 30 32  0     1  0            999 V2000
    5.0080   -1.4815   -0.1021 Cl  0  0  0  0  0  1           0  0  0
   -1.9861    0.1214    5.3177 O   0  0  0  0  0  2           0  0  0
   -1.4619   -3.5686    7.8301 O   0  0  0  0  0  2           0  0  0
   -0.1977   -2.2121    9.1557 O   0  0  0  0  0  2           0  0  0
    1.6760   -2.9488    1.3002 O   0  0  0  0  0  2           0  0  0
    1.4519   -0.0000    0.0000 N   0  0  0  0  0  3           0  0  0
    3.5357    0.7699   -0.0300 N   0  0  0  0  0  3           0  0  0
    3.5498   -0.5999   -0.0532 C   0  0  0  0  0  4           0  0  0
   -1.5169   -0.0027    4.0399 C   0  0  0  0  0  4           0  0  0
    2.2647    1.1169   -0.0000 C   0  0  0  0  0  4           0  0  0
    2.2666   -1.1149   -0.0368 C   0  0  0  0  0  4           0  0  0
   -2.3027   -1.4499    8.5292 C   0  0  0  0  0  4           0  0  0
   -2.7550   -0.7888    7.3728 C   0  0  0  0  0  4           0  0  0
   -0.5415    0.0000    1.3968 C   0  0  0  0  0  4           0  0  0
   -1.2868   -1.2088    3.3735 C   0  0  0  0  0  4           0  0  0
   -1.2590    1.2026    3.3800 C   0  0  0  0  0  4           0  0  0
   -2.8167   -1.1158    9.7907 C   0  0  0  0  0  4           0  0  0
   -3.7361    0.2063    7.5173 C   0  0  0  0  0  4           0  0  0
   -0.7996   -1.2048    2.0624 C   0  0  0  0  0  4           0  0  0
   -0.7736    1.2049    2.0706 C   0  0  0  0  0  4           0  0  0
   -3.7844   -0.1202    9.9096 C   0  0  0  0  0  4           0  0  0
   -4.2435    0.5406    8.7743 C   0  0  0  0  0  4           0  0  0
   -1.3056   -2.5308    8.4505 C   0  0  0  0  0  4           0  0  0
   -2.2515   -1.1047    5.9953 C   0  0  0  0  0  4           0  0  0
    1.7864   -2.5134   -0.0479 C   0  0  0  0  0  4           0  0  0
    0.0000    0.0000    0.0000 C   0  0  0  0  0  4           0  0  0
    1.7718    2.5209    0.0303 C   0  0  0  0  0  4           0  0  0
    2.5015    3.4126   -0.9695 C   0  0  0  0  0  4           0  0  0
    2.0351    4.8691   -0.9821 C   0  0  0  0  0  4           0  0  0
    2.7862    5.7247   -1.9913 C   0  0  0  0  0  4           0  0  0
  1  8  1  0     0  0
  2  9  1  0     0  0
  2 24  1  0     0  0
  3 23  2  0     0  0
  4 23  1  0     0  0
  5 25  1  0     0  0
  6 10  1  0     0  0
  6 11  1  0     0  0
  6 26  1  0     0  0
  7  8  1  0     0  0
  7 10  2  0     0  0
  8 11  2  0     0  0
  9 15  2  0     0  0
  9 16  1  0     0  0
 10 27  1  0     0  0
 11 25  1  0     0  0
 12 13  1  0     0  0
 12 17  2  0     0  0
 12 23  1  0     0  0
 13 18  2  0     0  0
 13 24  1  0     0  0
 14 19  2  0     0  0
 14 20  1  0     0  0
 14 26  1  0     0  0
 15 19  1  0     0  0
 16 20  2  0     0  0
 17 21  1  0     0  0
 18 22  1  0     0  0
 21 22  2  0     0  0
 27 28  1  0     0  0
 28 29  1  0     0  0
 29 30  1  0     0  0
M  END
> <standard_type>
pIC50

> <# Confs.>
25

> <canonical_smiles>
ClC(N=C1CCCC)=C(CO)N1CC2=CC=C(OCC3=CC=CC=C3C(O)=O)C=C2

> <standard_relation>
=

> <Publication_ID>
nan

> <predicted_activity_value>
5.920818753952375

> <actual_activity_value>
6.036212172654444

> <Compound>
14

> <standard_units>
nM

> hash
17989980845622856130

$$$$
13
XXILIB    08252103513D 0   0.00000     0.00000

 30 32  0     1  0            999 V2000
    5.0080   -1.4815   -0.1021 Cl  0  0  0  0  0  1           0  0  0
   -1.9861    0.1214    5.3177 O   0  0  0  0  0  2           0  0  0
   -4.1542   -3.4941    6.7965 O   0  0  0  0  0  2           0  0  0
   -5.9184   -2.0790    7.0804 O   0  0  0  0  0  2           0  0  0
    1.6760   -2.9488    1.3002 O   0  0  0  0  0  2           0  0  0
    1.4519   -0.0000    0.0000 N   0  0  0  0  0  3           0  0  0
    3.5357    0.7699   -0.0300 N   0  0  0  0  0  3           0  0  0
    3.5498   -0.5999   -0.0532 C   0  0  0  0  0  4           0  0  0
   -1.5169   -0.0027    4.0399 C   0  0  0  0  0  4           0  0  0
    2.2647    1.1169   -0.0000 C   0  0  0  0  0  4           0  0  0
    2.2666   -1.1149   -0.0368 C   0  0  0  0  0  4           0  0  0
   -3.8641   -1.4299    7.9538 C   0  0  0  0  0  4           0  0  0
   -2.7550   -0.7888    7.3728 C   0  0  0  0  0  4           0  0  0
   -0.5415    0.0000    1.3968 C   0  0  0  0  0  4           0  0  0
   -1.2868   -1.2088    3.3735 C   0  0  0  0  0  4           0  0  0
   -1.2590    1.2026    3.3800 C   0  0  0  0  0  4           0  0  0
   -4.2932   -1.0863    9.2443 C   0  0  0  0  0  4           0  0  0
   -2.0970    0.2049    8.1167 C   0  0  0  0  0  4           0  0  0
   -0.7996   -1.2048    2.0624 C   0  0  0  0  0  4           0  0  0
   -0.7736    1.2049    2.0706 C   0  0  0  0  0  4           0  0  0
   -3.6200   -0.1022    9.9656 C   0  0  0  0  0  4           0  0  0
   -2.5229    0.5426    9.4028 C   0  0  0  0  0  4           0  0  0
   -4.6271   -2.4526    7.2186 C   0  0  0  0  0  4           0  0  0
   -2.2515   -1.1047    5.9953 C   0  0  0  0  0  4           0  0  0
    1.7864   -2.5134   -0.0479 C   0  0  0  0  0  4           0  0  0
    0.0000    0.0000    0.0000 C   0  0  0  0  0  4           0  0  0
    1.7718    2.5209    0.0303 C   0  0  0  0  0  4           0  0  0
    2.5015    3.4126   -0.9695 C   0  0  0  0  0  4           0  0  0
    2.0351    4.8691   -0.9821 C   0  0  0  0  0  4           0  0  0
    2.7862    5.7247   -1.9913 C   0  0  0  0  0  4           0  0  0
  1  8  1  0     0  0
  2  9  1  0     0  0
  2 24  1  0     0  0
  3 23  2  0     0  0
  4 23  1  0     0  0
  5 25  1  0     0  0
  6 10  1  0     0  0
  6 11  1  0     0  0
  6 26  1  0     0  0
  7  8  1  0     0  0
  7 10  2  0     0  0
  8 11  2  0     0  0
  9 15  2  0     0  0
  9 16  1  0     0  0
 10 27  1  0     0  0
 11 25  1  0     0  0
 12 13  1  0     0  0
 12 17  2  0     0  0
 12 23  1  0     0  0
 13 18  2  0     0  0
 13 24  1  0     0  0
 14 19  2  0     0  0
 14 20  1  0     0  0
 14 26  1  0     0  0
 15 19  1  0     0  0
 16 20  2  0     0  0
 17 21  1  0     0  0
 18 22  1  0     0  0
 21 22  2  0     0  0
 27 28  1  0     0  0
 28 29  1  0     0  0
 29 30  1  0     0  0
M  END
> <standard_type>
pIC50

> <# Confs.>
25

> <canonical_smiles>
ClC(N=C1CCCC)=C(CO)N1CC2=CC=C(OCC3=CC=CC=C3C(O)=O)C=C2

> <standard_relation>
=

> <Publication_ID>
nan

> <predicted_activity_value>
5.920818753952375

> <actual_activity_value>
6.036212172654444

> <Compound>
14

> <standard_units>
nM

> hash
17989980845622856130

$$$$
13
XXILIB    08252103513D 0   0.00000     0.00000

 30 32  0     1  0            999 V2000
    5.0080   -1.4815   -0.1021 Cl  0  0  0  0  0  1           0  0  0
   -2.1174   -0.1214    5.2667 O   0  0  0  0  0  2           0  0  0
   -1.5127    3.4941    7.8206 O   0  0  0  0  0  2           0  0  0
   -0.4008    2.0790    9.2195 O   0  0  0  0  0  2           0  0  0
    1.6760   -2.9488    1.3002 O   0  0  0  0  0  2           0  0  0
    1.4519   -0.0000    0.0000 N   0  0  0  0  0  3           0  0  0
    3.5357    0.7699   -0.0300 N   0  0  0  0  0  3           0  0  0
    3.5498   -0.5999   -0.0532 C   0  0  0  0  0  4           0  0  0
   -1.6027    0.0027    4.0066 C   0  0  0  0  0  4           0  0  0
    2.2647    1.1169   -0.0000 C   0  0  0  0  0  4           0  0  0
    2.2666   -1.1149   -0.0368 C   0  0  0  0  0  4           0  0  0
   -2.5071    1.4299    8.4799 C   0  0  0  0  0  4           0  0  0
   -2.9347    0.7888    7.3031 C   0  0  0  0  0  4           0  0  0
   -0.5415    0.0000    1.3968 C   0  0  0  0  0  4           0  0  0
   -1.3234    1.2088    3.3593 C   0  0  0  0  0  4           0  0  0
   -1.3484   -1.2026    3.3454 C   0  0  0  0  0  4           0  0  0
   -3.0600    1.0863    9.7224 C   0  0  0  0  0  4           0  0  0
   -3.9222   -0.2049    7.4092 C   0  0  0  0  0  4           0  0  0
   -0.7996    1.2048    2.0624 C   0  0  0  0  0  4           0  0  0
   -0.8243   -1.2049    2.0510 C   0  0  0  0  0  4           0  0  0
   -4.0434    0.1022    9.8014 C   0  0  0  0  0  4           0  0  0
   -4.4745   -0.5426    8.6462 C   0  0  0  0  0  4           0  0  0
   -1.4479    2.4526    8.4511 C   0  0  0  0  0  4           0  0  0
   -2.3781    1.1047    5.9462 C   0  0  0  0  0  4           0  0  0
    1.7864   -2.5134   -0.0479 C   0  0  0  0  0  4           0  0  0
    0.0000   -0.0000    0.0000 C   0  0  0  0  0  4           0  0  0
    1.7718    2.5209    0.0303 C   0  0  0  0  0  4           0  0  0
    2.5015    3.4126   -0.9695 C   0  0  0  0  0  4           0  0  0
    2.3709    2.9726   -2.4284 C   0  0  0  0  0  4           0  0  0
    3.1117    3.8866   -3.3932 C   0  0  0  0  0  4           0  0  0
  1  8  1  0     0  0
  2  9  1  0     0  0
  2 24  1  0     0  0
  3 23  2  0     0  0
  4 23  1  0     0  0
  5 25  1  0     0  0
  6 10  1  0     0  0
  6 11  1  0     0  0
  6 26  1  0     0  0
  7  8  1  0     0  0
  7 10  2  0     0  0
  8 11  2  0     0  0
  9 15  2  0     0  0
  9 16  1  0     0  0
 10 27  1  0     0  0
 11 25  1  0     0  0
 12 13  1  0     0  0
 12 17  2  0     0  0
 12 23  1  0     0  0
 13 18  2  0     0  0
 13 24  1  0     0  0
 14 19  2  0     0  0
 14 20  1  0     0  0
 14 26  1  0     0  0
 15 19  1  0     0  0
 16 20  2  0     0  0
 17 21  1  0     0  0
 18 22  1  0     0  0
 21 22  2  0     0  0
 27 28  1  0     0  0
 28 29  1  0     0  0
 29 30  1  0     0  0
M  END
> <standard_type>
pIC50

> <# Confs.>
25

> <canonical_smiles>
ClC(N=C1CCCC)=C(CO)N1CC2=CC=C(OCC3=CC=CC=C3C(O)=O)C=C2

> <standard_relation>
=

> <Publication_ID>
nan

> <predicted_activity_value>
5.920818753952375

> <actual_activity_value>
6.036212172654444

> <Compound>
14

> <standard_units>
nM

> hash
17989980845622856130

$$$$
13
XXILIB    08252103513D 0   0.00000     0.00000

 30 32  0     1  0            999 V2000
    5.0080   -1.4815   -0.1021 Cl  0  0  0  0  0  1           0  0  0
   -1.9861    0.1214    5.3177 O   0  0  0  0  0  2           0  0  0
    0.0911   -1.8433    8.0021 O   0  0  0  0  0  2           0  0  0
    0.1957    0.3178    8.7194 O   0  0  0  0  0  2           0  0  0
    1.6760   -2.9488    1.3002 O   0  0  0  0  0  2           0  0  0
    1.4519   -0.0000    0.0000 N   0  0  0  0  0  3           0  0  0
    3.5357    0.7699   -0.0300 N   0  0  0  0  0  3           0  0  0
    3.5498   -0.5999   -0.0532 C   0  0  0  0  0  4           0  0  0
   -1.5169   -0.0027    4.0399 C   0  0  0  0  0  4           0  0  0
    2.2647    1.1169   -0.0000 C   0  0  0  0  0  4           0  0  0
    2.2666   -1.1149   -0.0368 C   0  0  0  0  0  4           0  0  0
   -1.9095   -0.6407    8.4873 C   0  0  0  0  0  4           0  0  0
   -2.7550   -0.7888    7.3728 C   0  0  0  0  0  4           0  0  0
   -0.5415    0.0000    1.3968 C   0  0  0  0  0  4           0  0  0
   -1.2868   -1.2088    3.3735 C   0  0  0  0  0  4           0  0  0
   -1.2590    1.2026    3.3800 C   0  0  0  0  0  4           0  0  0
   -2.4398   -0.3524    9.7534 C   0  0  0  0  0  4           0  0  0
   -4.1393   -0.6464    7.5655 C   0  0  0  0  0  4           0  0  0
   -0.7996   -1.2048    2.0624 C   0  0  0  0  0  4           0  0  0
   -0.7736    1.2049    2.0706 C   0  0  0  0  0  4           0  0  0
   -3.8161   -0.2087    9.9184 C   0  0  0  0  0  4           0  0  0
   -4.6651   -0.3552    8.8257 C   0  0  0  0  0  4           0  0  0
   -0.4521   -0.8154    8.3691 C   0  0  0  0  0  4           0  0  0
   -2.2515   -1.1047    5.9953 C   0  0  0  0  0  4           0  0  0
    1.7864   -2.5134   -0.0479 C   0  0  0  0  0  4           0  0  0
    0.0000    0.0000    0.0000 C   0  0  0  0  0  4           0  0  0
    1.7718    2.5209    0.0303 C   0  0  0  0  0  4           0  0  0
    2.5015    3.4126   -0.9695 C   0  0  0  0  0  4           0  0  0
    2.3709    2.9726   -2.4284 C   0  0  0  0  0  4           0  0  0
    3.1117    3.8866   -3.3932 C   0  0  0  0  0  4           0  0  0
  1  8  1  0     0  0
  2  9  1  0     0  0
  2 24  1  0     0  0
  3 23  2  0     0  0
  4 23  1  0     0  0
  5 25  1  0     0  0
  6 10  1  0     0  0
  6 11  1  0     0  0
  6 26  1  0     0  0
  7  8  1  0     0  0
  7 10  2  0     0  0
  8 11  2  0     0  0
  9 15  2  0     0  0
  9 16  1  0     0  0
 10 27  1  0     0  0
 11 25  1  0     0  0
 12 13  1  0     0  0
 12 17  2  0     0  0
 12 23  1  0     0  0
 13 18  2  0     0  0
 13 24  1  0     0  0
 14 19  2  0     0  0
 14 20  1  0     0  0
 14 26  1  0     0  0
 15 19  1  0     0  0
 16 20  2  0     0  0
 17 21  1  0     0  0
 18 22  1  0     0  0
 21 22  2  0     0  0
 27 28  1  0     0  0
 28 29  1  0     0  0
 29 30  1  0     0  0
M  END
> <standard_type>
pIC50

> <# Confs.>
25

> <canonical_smiles>
ClC(N=C1CCCC)=C(CO)N1CC2=CC=C(OCC3=CC=CC=C3C(O)=O)C=C2

> <standard_relation>
=

> <Publication_ID>
nan

> <predicted_activity_value>
5.920818753952375

> <actual_activity_value>
6.036212172654444

> <Compound>
14

> <standard_units>
nM

> hash
17989980845622856130

$$$$
13
XXILIB    08252103513D 0   0.00000     0.00000

 30 32  0     1  0            999 V2000
    5.0080   -1.4815   -0.1021 Cl  0  0  0  0  0  1           0  0  0
   -2.1174   -0.1214    5.2667 O   0  0  0  0  0  2           0  0  0
   -4.1981    3.5686    6.7693 O   0  0  0  0  0  2           0  0  0
   -6.0255    2.2121    6.8963 O   0  0  0  0  0  2           0  0  0
    1.6760   -2.9488    1.3002 O   0  0  0  0  0  2           0  0  0
    1.4519   -0.0000    0.0000 N   0  0  0  0  0  3           0  0  0
    3.5357    0.7699   -0.0300 N   0  0  0  0  0  3           0  0  0
    3.5498   -0.5999   -0.0532 C   0  0  0  0  0  4           0  0  0
   -1.6027    0.0027    4.0066 C   0  0  0  0  0  4           0  0  0
    2.2647    1.1169   -0.0000 C   0  0  0  0  0  4           0  0  0
    2.2666   -1.1149   -0.0368 C   0  0  0  0  0  4           0  0  0
   -4.0483    1.4499    7.8524 C   0  0  0  0  0  4           0  0  0
   -2.9347    0.7888    7.3031 C   0  0  0  0  0  4           0  0  0
   -0.5415    0.0000    1.3968 C   0  0  0  0  0  4           0  0  0
   -1.3234    1.2088    3.3593 C   0  0  0  0  0  4           0  0  0
   -1.3484   -1.2026    3.3454 C   0  0  0  0  0  4           0  0  0
   -4.5190    1.1158    9.1308 C   0  0  0  0  0  4           0  0  0
   -2.3074   -0.2063    8.0712 C   0  0  0  0  0  4           0  0  0
   -0.7996    1.2048    2.0624 C   0  0  0  0  0  4           0  0  0
   -0.8243   -1.2049    2.0510 C   0  0  0  0  0  4           0  0  0
   -3.8843    0.1202    9.8709 C   0  0  0  0  0  4           0  0  0
   -2.7799   -0.5406    9.3418 C   0  0  0  0  0  4           0  0  0
   -4.7318    2.5308    7.1222 C   0  0  0  0  0  4           0  0  0
   -2.3781    1.1047    5.9462 C   0  0  0  0  0  4           0  0  0
    1.7864   -2.5134   -0.0479 C   0  0  0  0  0  4           0  0  0
    0.0000   -0.0000    0.0000 C   0  0  0  0  0  4           0  0  0
    1.7718    2.5209    0.0303 C   0  0  0  0  0  4           0  0  0
    2.5015    3.4126   -0.9695 C   0  0  0  0  0  4           0  0  0
    2.0351    4.8691   -0.9821 C   0  0  0  0  0  4           0  0  0
    2.7862    5.7247   -1.9913 C   0  0  0  0  0  4           0  0  0
  1  8  1  0     0  0
  2  9  1  0     0  0
  2 24  1  0     0  0
  3 23  2  0     0  0
  4 23  1  0     0  0
  5 25  1  0     0  0
  6 10  1  0     0  0
  6 11  1  0     0  0
  6 26  1  0     0  0
  7  8  1  0     0  0
  7 10  2  0     0  0
  8 11  2  0     0  0
  9 15  2  0     0  0
  9 16  1  0     0  0
 10 27  1  0     0  0
 11 25  1  0     0  0
 12 13  1  0     0  0
 12 17  2  0     0  0
 12 23  1  0     0  0
 13 18  2  0     0  0
 13 24  1  0     0  0
 14 19  2  0     0  0
 14 20  1  0     0  0
 14 26  1  0     0  0
 15 19  1  0     0  0
 16 20  2  0     0  0
 17 21  1  0     0  0
 18 22  1  0     0  0
 21 22  2  0     0  0
 27 28  1  0     0  0
 28 29  1  0     0  0
 29 30  1  0     0  0
M  END
> <standard_type>
pIC50

> <# Confs.>
25

> <canonical_smiles>
ClC(N=C1CCCC)=C(CO)N1CC2=CC=C(OCC3=CC=CC=C3C(O)=O)C=C2

> <standard_relation>
=

> <Publication_ID>
nan

> <predicted_activity_value>
5.920818753952375

> <actual_activity_value>
6.036212172654444

> <Compound>
14

> <standard_units>
nM

> hash
17989980845622856130

$$$$
13
XXILIB    08252103513D 0   0.00000     0.00000

 30 32  0     1  0            999 V2000
    5.0080   -1.4815   -0.1021 Cl  0  0  0  0  0  1           0  0  0
   -2.1174   -0.1214    5.2667 O   0  0  0  0  0  2           0  0  0
   -5.4613    1.8433    5.8495 O   0  0  0  0  0  2           0  0  0
   -6.0220   -0.3178    6.3089 O   0  0  0  0  0  2           0  0  0
    1.6760   -2.9488    1.3002 O   0  0  0  0  0  2           0  0  0
    1.4519   -0.0000    0.0000 N   0  0  0  0  0  3           0  0  0
    3.5357    0.7699   -0.0300 N   0  0  0  0  0  3           0  0  0
    3.5498   -0.5999   -0.0532 C   0  0  0  0  0  4           0  0  0
   -1.6027    0.0027    4.0066 C   0  0  0  0  0  4           0  0  0
    2.2647    1.1169   -0.0000 C   0  0  0  0  0  4           0  0  0
    2.2666   -1.1149   -0.0368 C   0  0  0  0  0  4           0  0  0
   -4.3105    0.6407    7.5565 C   0  0  0  0  0  4           0  0  0
   -2.9347    0.7888    7.3031 C   0  0  0  0  0  4           0  0  0
   -0.5415    0.0000    1.3968 C   0  0  0  0  0  4           0  0  0
   -1.3234    1.2088    3.3593 C   0  0  0  0  0  4           0  0  0
   -1.3484   -1.2026    3.3454 C   0  0  0  0  0  4           0  0  0
   -4.7722    0.3524    8.8492 C   0  0  0  0  0  4           0  0  0
   -2.0420    0.6464    8.3786 C   0  0  0  0  0  4           0  0  0
   -0.7996    1.2048    2.0624 C   0  0  0  0  0  4           0  0  0
   -0.8243   -1.2049    2.0510 C   0  0  0  0  0  4           0  0  0
   -3.8668    0.2087    9.8987 C   0  0  0  0  0  4           0  0  0
   -2.5031    0.3552    9.6639 C   0  0  0  0  0  4           0  0  0
   -5.3074    0.8154    6.4868 C   0  0  0  0  0  4           0  0  0
   -2.3781    1.1047    5.9462 C   0  0  0  0  0  4           0  0  0
    1.7864   -2.5134   -0.0479 C   0  0  0  0  0  4           0  0  0
    0.0000   -0.0000    0.0000 C   0  0  0  0  0  4           0  0  0
    1.7718    2.5209    0.0303 C   0  0  0  0  0  4           0  0  0
    2.5015    3.4126   -0.9695 C   0  0  0  0  0  4           0  0  0
    2.3709    2.9726   -2.4284 C   0  0  0  0  0  4           0  0  0
    3.1117    3.8866   -3.3932 C   0  0  0  0  0  4           0  0  0
  1  8  1  0     0  0
  2  9  1  0     0  0
  2 24  1  0     0  0
  3 23  2  0     0  0
  4 23  1  0     0  0
  5 25  1  0     0  0
  6 10  1  0     0  0
  6 11  1  0     0  0
  6 26  1  0     0  0
  7  8  1  0     0  0
  7 10  2  0     0  0
  8 11  2  0     0  0
  9 15  2  0     0  0
  9 16  1  0     0  0
 10 27  1  0     0  0
 11 25  1  0     0  0
 12 13  1  0     0  0
 12 17  2  0     0  0
 12 23  1  0     0  0
 13 18  2  0     0  0
 13 24  1  0     0  0
 14 19  2  0     0  0
 14 20  1  0     0  0
 14 26  1  0     0  0
 15 19  1  0     0  0
 16 20  2  0     0  0
 17 21  1  0     0  0
 18 22  1  0     0  0
 21 22  2  0     0  0
 27 28  1  0     0  0
 28 29  1  0     0  0
 29 30  1  0     0  0
M  END
> <standard_type>
pIC50

> <# Confs.>
25

> <canonical_smiles>
ClC(N=C1CCCC)=C(CO)N1CC2=CC=C(OCC3=CC=CC=C3C(O)=O)C=C2

> <standard_relation>
=

> <Publication_ID>
nan

> <predicted_activity_value>
5.920818753952375

> <actual_activity_value>
6.036212172654444

> <Compound>
14

> <standard_units>
nM

> hash
17989980845622856130

$$$$
13
XXILIB    08252103513D 0   0.00000     0.00000

 30 32  0     1  0            999 V2000
    5.0080   -1.4815   -0.1021 Cl  0  0  0  0  0  1           0  0  0
   -2.1174   -0.1214    5.2667 O   0  0  0  0  0  2           0  0  0
   -1.5127    3.4941    7.8206 O   0  0  0  0  0  2           0  0  0
   -0.4008    2.0790    9.2195 O   0  0  0  0  0  2           0  0  0
    1.6760   -2.9488    1.3002 O   0  0  0  0  0  2           0  0  0
    1.4519   -0.0000    0.0000 N   0  0  0  0  0  3           0  0  0
    3.5357    0.7699   -0.0300 N   0  0  0  0  0  3           0  0  0
    3.5498   -0.5999   -0.0532 C   0  0  0  0  0  4           0  0  0
   -1.6027    0.0027    4.0066 C   0  0  0  0  0  4           0  0  0
    2.2647    1.1169   -0.0000 C   0  0  0  0  0  4           0  0  0
    2.2666   -1.1149   -0.0368 C   0  0  0  0  0  4           0  0  0
   -2.5071    1.4299    8.4799 C   0  0  0  0  0  4           0  0  0
   -2.9347    0.7888    7.3031 C   0  0  0  0  0  4           0  0  0
   -0.5415    0.0000    1.3968 C   0  0  0  0  0  4           0  0  0
   -1.3234    1.2088    3.3593 C   0  0  0  0  0  4           0  0  0
   -1.3484   -1.2026    3.3454 C   0  0  0  0  0  4           0  0  0
   -3.0600    1.0863    9.7224 C   0  0  0  0  0  4           0  0  0
   -3.9222   -0.2049    7.4092 C   0  0  0  0  0  4           0  0  0
   -0.7996    1.2048    2.0624 C   0  0  0  0  0  4           0  0  0
   -0.8243   -1.2049    2.0510 C   0  0  0  0  0  4           0  0  0
   -4.0434    0.1022    9.8014 C   0  0  0  0  0  4           0  0  0
   -4.4745   -0.5426    8.6462 C   0  0  0  0  0  4           0  0  0
   -1.4479    2.4526    8.4511 C   0  0  0  0  0  4           0  0  0
   -2.3781    1.1047    5.9462 C   0  0  0  0  0  4           0  0  0
    1.7864   -2.5134   -0.0479 C   0  0  0  0  0  4           0  0  0
    0.0000   -0.0000    0.0000 C   0  0  0  0  0  4           0  0  0
    1.7718    2.5209    0.0303 C   0  0  0  0  0  4           0  0  0
    2.5015    3.4126   -0.9695 C   0  0  0  0  0  4           0  0  0
    2.0351    4.8691   -0.9821 C   0  0  0  0  0  4           0  0  0
    2.7862    5.7247   -1.9913 C   0  0  0  0  0  4           0  0  0
  1  8  1  0     0  0
  2  9  1  0     0  0
  2 24  1  0     0  0
  3 23  2  0     0  0
  4 23  1  0     0  0
  5 25  1  0     0  0
  6 10  1  0     0  0
  6 11  1  0     0  0
  6 26  1  0     0  0
  7  8  1  0     0  0
  7 10  2  0     0  0
  8 11  2  0     0  0
  9 15  2  0     0  0
  9 16  1  0     0  0
 10 27  1  0     0  0
 11 25  1  0     0  0
 12 13  1  0     0  0
 12 17  2  0     0  0
 12 23  1  0     0  0
 13 18  2  0     0  0
 13 24  1  0     0  0
 14 19  2  0     0  0
 14 20  1  0     0  0
 14 26  1  0     0  0
 15 19  1  0     0  0
 16 20  2  0     0  0
 17 21  1  0     0  0
 18 22  1  0     0  0
 21 22  2  0     0  0
 27 28  1  0     0  0
 28 29  1  0     0  0
 29 30  1  0     0  0
M  END
> <standard_type>
pIC50

> <# Confs.>
25

> <canonical_smiles>
ClC(N=C1CCCC)=C(CO)N1CC2=CC=C(OCC3=CC=CC=C3C(O)=O)C=C2

> <standard_relation>
=

> <Publication_ID>
nan

> <predicted_activity_value>
5.920818753952375

> <actual_activity_value>
6.036212172654444

> <Compound>
14

> <standard_units>
nM

> hash
17989980845622856130

$$$$
13
XXILIB    08252103513D 0   0.00000     0.00000

 30 32  0     1  0            999 V2000
    5.0080   -1.4815   -0.1021 Cl  0  0  0  0  0  1           0  0  0
   -2.1174   -0.1214    5.2667 O   0  0  0  0  0  2           0  0  0
   -0.0537    1.6954    8.0003 O   0  0  0  0  0  2           0  0  0
   -0.0892   -0.4543    8.7575 O   0  0  0  0  0  2           0  0  0
    1.6760   -2.9488    1.3002 O   0  0  0  0  0  2           0  0  0
    1.4519   -0.0000    0.0000 N   0  0  0  0  0  3           0  0  0
    3.5357    0.7699   -0.0300 N   0  0  0  0  0  3           0  0  0
    3.5498   -0.5999   -0.0532 C   0  0  0  0  0  4           0  0  0
   -1.6027    0.0027    4.0066 C   0  0  0  0  0  4           0  0  0
    2.2647    1.1169   -0.0000 C   0  0  0  0  0  4           0  0  0
    2.2666   -1.1149   -0.0368 C   0  0  0  0  0  4           0  0  0
   -2.1309    0.6124    8.4440 C   0  0  0  0  0  4           0  0  0
   -2.9347    0.7888    7.3031 C   0  0  0  0  0  4           0  0  0
   -0.5415    0.0000    1.3968 C   0  0  0  0  0  4           0  0  0
   -1.3234    1.2088    3.3593 C   0  0  0  0  0  4           0  0  0
   -1.3484   -1.2026    3.3454 C   0  0  0  0  0  4           0  0  0
   -2.7089    0.3107    9.6858 C   0  0  0  0  0  4           0  0  0
   -4.3257    0.6484    7.4423 C   0  0  0  0  0  4           0  0  0
   -0.7996    1.2048    2.0624 C   0  0  0  0  0  4           0  0  0
   -0.8243   -1.2049    2.0510 C   0  0  0  0  0  4           0  0  0
   -4.0918    0.1833    9.8005 C   0  0  0  0  0  4           0  0  0
   -4.8996    0.3523    8.6801 C   0  0  0  0  0  4           0  0  0
   -0.6632    0.7048    8.3661 C   0  0  0  0  0  4           0  0  0
   -2.3781    1.1047    5.9462 C   0  0  0  0  0  4           0  0  0
    1.7864   -2.5134   -0.0479 C   0  0  0  0  0  4           0  0  0
    0.0000   -0.0000    0.0000 C   0  0  0  0  0  4           0  0  0
    1.7718    2.5209    0.0303 C   0  0  0  0  0  4           0  0  0
    2.5015    3.4126   -0.9695 C   0  0  0  0  0  4           0  0  0
    2.3709    2.9726   -2.4284 C   0  0  0  0  0  4           0  0  0
    3.1117    3.8866   -3.3932 C   0  0  0  0  0  4           0  0  0
  1  8  1  0     0  0
  2  9  1  0     0  0
  2 24  1  0     0  0
  3 23  2  0     0  0
  4 23  1  0     0  0
  5 25  1  0     0  0
  6 10  1  0     0  0
  6 11  1  0     0  0
  6 26  1  0     0  0
  7  8  1  0     0  0
  7 10  2  0     0  0
  8 11  2  0     0  0
  9 15  2  0     0  0
  9 16  1  0     0  0
 10 27  1  0     0  0
 11 25  1  0     0  0
 12 13  1  0     0  0
 12 17  2  0     0  0
 12 23  1  0     0  0
 13 18  2  0     0  0
 13 24  1  0     0  0
 14 19  2  0     0  0
 14 20  1  0     0  0
 14 26  1  0     0  0
 15 19  1  0     0  0
 16 20  2  0     0  0
 17 21  1  0     0  0
 18 22  1  0     0  0
 21 22  2  0     0  0
 27 28  1  0     0  0
 28 29  1  0     0  0
 29 30  1  0     0  0
M  END
> <standard_type>
pIC50

> <# Confs.>
25

> <canonical_smiles>
ClC(N=C1CCCC)=C(CO)N1CC2=CC=C(OCC3=CC=CC=C3C(O)=O)C=C2

> <standard_relation>
=

> <Publication_ID>
nan

> <predicted_activity_value>
5.920818753952375

> <actual_activity_value>
6.036212172654444

> <Compound>
14

> <standard_units>
nM

> hash
17989980845622856130

$$$$
13
XXILIB    08252103513D 0   0.00000     0.00000

 30 32  0     1  0            999 V2000
    5.0080   -1.4815   -0.1021 Cl  0  0  0  0  0  1           0  0  0
   -1.9861    0.1214    5.3177 O   0  0  0  0  0  2           0  0  0
    0.0911   -1.8433    8.0021 O   0  0  0  0  0  2           0  0  0
    0.1957    0.3178    8.7194 O   0  0  0  0  0  2           0  0  0
    1.6760   -2.9488    1.3002 O   0  0  0  0  0  2           0  0  0
    1.4519   -0.0000    0.0000 N   0  0  0  0  0  3           0  0  0
    3.5357    0.7699   -0.0300 N   0  0  0  0  0  3           0  0  0
    3.5498   -0.5999   -0.0532 C   0  0  0  0  0  4           0  0  0
   -1.5169   -0.0027    4.0399 C   0  0  0  0  0  4           0  0  0
    2.2647    1.1169   -0.0000 C   0  0  0  0  0  4           0  0  0
    2.2666   -1.1149   -0.0368 C   0  0  0  0  0  4           0  0  0
   -1.9095   -0.6407    8.4873 C   0  0  0  0  0  4           0  0  0
   -2.7550   -0.7888    7.3728 C   0  0  0  0  0  4           0  0  0
   -0.5415    0.0000    1.3968 C   0  0  0  0  0  4           0  0  0
   -1.2868   -1.2088    3.3735 C   0  0  0  0  0  4           0  0  0
   -1.2590    1.2026    3.3800 C   0  0  0  0  0  4           0  0  0
   -2.4398   -0.3524    9.7534 C   0  0  0  0  0  4           0  0  0
   -4.1393   -0.6464    7.5655 C   0  0  0  0  0  4           0  0  0
   -0.7996   -1.2048    2.0624 C   0  0  0  0  0  4           0  0  0
   -0.7736    1.2049    2.0706 C   0  0  0  0  0  4           0  0  0
   -3.8161   -0.2087    9.9184 C   0  0  0  0  0  4           0  0  0
   -4.6651   -0.3552    8.8257 C   0  0  0  0  0  4           0  0  0
   -0.4521   -0.8154    8.3691 C   0  0  0  0  0  4           0  0  0
   -2.2515   -1.1047    5.9953 C   0  0  0  0  0  4           0  0  0
    1.7864   -2.5134   -0.0479 C   0  0  0  0  0  4           0  0  0
    0.0000    0.0000    0.0000 C   0  0  0  0  0  4           0  0  0
    1.7718    2.5209    0.0303 C   0  0  0  0  0  4           0  0  0
    2.5015    3.4126   -0.9695 C   0  0  0  0  0  4           0  0  0
    2.0351    4.8691   -0.9821 C   0  0  0  0  0  4           0  0  0
    2.7862    5.7247   -1.9913 C   0  0  0  0  0  4           0  0  0
  1  8  1  0     0  0
  2  9  1  0     0  0
  2 24  1  0     0  0
  3 23  2  0     0  0
  4 23  1  0     0  0
  5 25  1  0     0  0
  6 10  1  0     0  0
  6 11  1  0     0  0
  6 26  1  0     0  0
  7  8  1  0     0  0
  7 10  2  0     0  0
  8 11  2  0     0  0
  9 15  2  0     0  0
  9 16  1  0     0  0
 10 27  1  0     0  0
 11 25  1  0     0  0
 12 13  1  0     0  0
 12 17  2  0     0  0
 12 23  1  0     0  0
 13 18  2  0     0  0
 13 24  1  0     0  0
 14 19  2  0     0  0
 14 20  1  0     0  0
 14 26  1  0     0  0
 15 19  1  0     0  0
 16 20  2  0     0  0
 17 21  1  0     0  0
 18 22  1  0     0  0
 21 22  2  0     0  0
 27 28  1  0     0  0
 28 29  1  0     0  0
 29 30  1  0     0  0
M  END
> <standard_type>
pIC50

> <# Confs.>
25

> <canonical_smiles>
ClC(N=C1CCCC)=C(CO)N1CC2=CC=C(OCC3=CC=CC=C3C(O)=O)C=C2

> <standard_relation>
=

> <Publication_ID>
nan

> <predicted_activity_value>
5.920818753952375

> <actual_activity_value>
6.036212172654444

> <Compound>
14

> <standard_units>
nM

> hash
17989980845622856130

$$$$
13
XXILIB    08252103513D 0   0.00000     0.00000

 30 32  0     1  0            999 V2000
    5.0080   -1.4815   -0.1021 Cl  0  0  0  0  0  1           0  0  0
   -2.1174   -0.1214    5.2667 O   0  0  0  0  0  2           0  0  0
   -5.4613    1.8433    5.8495 O   0  0  0  0  0  2           0  0  0
   -6.0220   -0.3178    6.3089 O   0  0  0  0  0  2           0  0  0
    1.6760   -2.9488    1.3002 O   0  0  0  0  0  2           0  0  0
    1.4519   -0.0000    0.0000 N   0  0  0  0  0  3           0  0  0
    3.5357    0.7699   -0.0300 N   0  0  0  0  0  3           0  0  0
    3.5498   -0.5999   -0.0532 C   0  0  0  0  0  4           0  0  0
   -1.6027    0.0027    4.0066 C   0  0  0  0  0  4           0  0  0
    2.2647    1.1169   -0.0000 C   0  0  0  0  0  4           0  0  0
    2.2666   -1.1149   -0.0368 C   0  0  0  0  0  4           0  0  0
   -4.3105    0.6407    7.5565 C   0  0  0  0  0  4           0  0  0
   -2.9347    0.7888    7.3031 C   0  0  0  0  0  4           0  0  0
   -0.5415    0.0000    1.3968 C   0  0  0  0  0  4           0  0  0
   -1.3234    1.2088    3.3593 C   0  0  0  0  0  4           0  0  0
   -1.3484   -1.2026    3.3454 C   0  0  0  0  0  4           0  0  0
   -4.7722    0.3524    8.8492 C   0  0  0  0  0  4           0  0  0
   -2.0420    0.6464    8.3786 C   0  0  0  0  0  4           0  0  0
   -0.7996    1.2048    2.0624 C   0  0  0  0  0  4           0  0  0
   -0.8243   -1.2049    2.0510 C   0  0  0  0  0  4           0  0  0
   -3.8668    0.2087    9.8987 C   0  0  0  0  0  4           0  0  0
   -2.5031    0.3552    9.6639 C   0  0  0  0  0  4           0  0  0
   -5.3074    0.8154    6.4868 C   0  0  0  0  0  4           0  0  0
   -2.3781    1.1047    5.9462 C   0  0  0  0  0  4           0  0  0
    1.7864   -2.5134   -0.0479 C   0  0  0  0  0  4           0  0  0
    0.0000   -0.0000    0.0000 C   0  0  0  0  0  4           0  0  0
    1.7718    2.5209    0.0303 C   0  0  0  0  0  4           0  0  0
    2.5015    3.4126   -0.9695 C   0  0  0  0  0  4           0  0  0
    2.0351    4.8691   -0.9821 C   0  0  0  0  0  4           0  0  0
    2.7862    5.7247   -1.9913 C   0  0  0  0  0  4           0  0  0
  1  8  1  0     0  0
  2  9  1  0     0  0
  2 24  1  0     0  0
  3 23  2  0     0  0
  4 23  1  0     0  0
  5 25  1  0     0  0
  6 10  1  0     0  0
  6 11  1  0     0  0
  6 26  1  0     0  0
  7  8  1  0     0  0
  7 10  2  0     0  0
  8 11  2  0     0  0
  9 15  2  0     0  0
  9 16  1  0     0  0
 10 27  1  0     0  0
 11 25  1  0     0  0
 12 13  1  0     0  0
 12 17  2  0     0  0
 12 23  1  0     0  0
 13 18  2  0     0  0
 13 24  1  0     0  0
 14 19  2  0     0  0
 14 20  1  0     0  0
 14 26  1  0     0  0
 15 19  1  0     0  0
 16 20  2  0     0  0
 17 21  1  0     0  0
 18 22  1  0     0  0
 21 22  2  0     0  0
 27 28  1  0     0  0
 28 29  1  0     0  0
 29 30  1  0     0  0
M  END
> <standard_type>
pIC50

> <# Confs.>
25

> <canonical_smiles>
ClC(N=C1CCCC)=C(CO)N1CC2=CC=C(OCC3=CC=CC=C3C(O)=O)C=C2

> <standard_relation>
=

> <Publication_ID>
nan

> <predicted_activity_value>
5.920818753952375

> <actual_activity_value>
6.036212172654444

> <Compound>
14

> <standard_units>
nM

> hash
17989980845622856130

$$$$
13
XXILIB    08252103513D 0   0.00000     0.00000

 30 32  0     1  0            999 V2000
    5.0080   -1.4815   -0.1021 Cl  0  0  0  0  0  1           0  0  0
   -2.1174   -0.1214    5.2667 O   0  0  0  0  0  2           0  0  0
   -0.0537    1.6954    8.0003 O   0  0  0  0  0  2           0  0  0
   -0.0892   -0.4543    8.7575 O   0  0  0  0  0  2           0  0  0
    1.6760   -2.9488    1.3002 O   0  0  0  0  0  2           0  0  0
    1.4519   -0.0000    0.0000 N   0  0  0  0  0  3           0  0  0
    3.5357    0.7699   -0.0300 N   0  0  0  0  0  3           0  0  0
    3.5498   -0.5999   -0.0532 C   0  0  0  0  0  4           0  0  0
   -1.6027    0.0027    4.0066 C   0  0  0  0  0  4           0  0  0
    2.2647    1.1169   -0.0000 C   0  0  0  0  0  4           0  0  0
    2.2666   -1.1149   -0.0368 C   0  0  0  0  0  4           0  0  0
   -2.1309    0.6124    8.4440 C   0  0  0  0  0  4           0  0  0
   -2.9347    0.7888    7.3031 C   0  0  0  0  0  4           0  0  0
   -0.5415    0.0000    1.3968 C   0  0  0  0  0  4           0  0  0
   -1.3234    1.2088    3.3593 C   0  0  0  0  0  4           0  0  0
   -1.3484   -1.2026    3.3454 C   0  0  0  0  0  4           0  0  0
   -2.7089    0.3107    9.6858 C   0  0  0  0  0  4           0  0  0
   -4.3257    0.6484    7.4423 C   0  0  0  0  0  4           0  0  0
   -0.7996    1.2048    2.0624 C   0  0  0  0  0  4           0  0  0
   -0.8243   -1.2049    2.0510 C   0  0  0  0  0  4           0  0  0
   -4.0918    0.1833    9.8005 C   0  0  0  0  0  4           0  0  0
   -4.8996    0.3523    8.6801 C   0  0  0  0  0  4           0  0  0
   -0.6632    0.7048    8.3661 C   0  0  0  0  0  4           0  0  0
   -2.3781    1.1047    5.9462 C   0  0  0  0  0  4           0  0  0
    1.7864   -2.5134   -0.0479 C   0  0  0  0  0  4           0  0  0
    0.0000   -0.0000    0.0000 C   0  0  0  0  0  4           0  0  0
    1.7718    2.5209    0.0303 C   0  0  0  0  0  4           0  0  0
    2.5015    3.4126   -0.9695 C   0  0  0  0  0  4           0  0  0
    2.0351    4.8691   -0.9821 C   0  0  0  0  0  4           0  0  0
    2.7862    5.7247   -1.9913 C   0  0  0  0  0  4           0  0  0
  1  8  1  0     0  0
  2  9  1  0     0  0
  2 24  1  0     0  0
  3 23  2  0     0  0
  4 23  1  0     0  0
  5 25  1  0     0  0
  6 10  1  0     0  0
  6 11  1  0     0  0
  6 26  1  0     0  0
  7  8  1  0     0  0
  7 10  2  0     0  0
  8 11  2  0     0  0
  9 15  2  0     0  0
  9 16  1  0     0  0
 10 27  1  0     0  0
 11 25  1  0     0  0
 12 13  1  0     0  0
 12 17  2  0     0  0
 12 23  1  0     0  0
 13 18  2  0     0  0
 13 24  1  0     0  0
 14 19  2  0     0  0
 14 20  1  0     0  0
 14 26  1  0     0  0
 15 19  1  0     0  0
 16 20  2  0     0  0
 17 21  1  0     0  0
 18 22  1  0     0  0
 21 22  2  0     0  0
 27 28  1  0     0  0
 28 29  1  0     0  0
 29 30  1  0     0  0
M  END
> <standard_type>
pIC50

> <# Confs.>
25

> <canonical_smiles>
ClC(N=C1CCCC)=C(CO)N1CC2=CC=C(OCC3=CC=CC=C3C(O)=O)C=C2

> <standard_relation>
=

> <Publication_ID>
nan

> <predicted_activity_value>
5.920818753952375

> <actual_activity_value>
6.036212172654444

> <Compound>
14

> <standard_units>
nM

> hash
17989980845622856130

$$$$
13
XXILIB    08252103513D 0   0.00000     0.00000

 30 32  0     1  0            999 V2000
    5.0080    1.4815    0.1021 Cl  0  0  0  0  0  1           0  0  0
   -2.0854    0.1357    5.2792 O   0  0  0  0  0  2           0  0  0
   -3.4593   -3.2083    6.6800 O   0  0  0  0  0  2           0  0  0
   -5.2950   -1.8583    6.7393 O   0  0  0  0  0  2           0  0  0
    1.6760    2.9488   -1.3002 O   0  0  0  0  0  2           0  0  0
    1.4519   -0.0000   -0.0000 N   0  0  0  0  0  3           0  0  0
    3.5357   -0.7699    0.0300 N   0  0  0  0  0  3           0  0  0
    3.5498    0.5999    0.0532 C   0  0  0  0  0  4           0  0  0
   -1.5277    0.0306    4.0357 C   0  0  0  0  0  4           0  0  0
    2.2647   -1.1169    0.0000 C   0  0  0  0  0  4           0  0  0
    2.2666    1.1149    0.0368 C   0  0  0  0  0  4           0  0  0
   -3.4230   -1.1864    7.9430 C   0  0  0  0  0  4           0  0  0
   -2.2612   -0.4896    7.5642 C   0  0  0  0  0  4           0  0  0
   -0.5415   -0.0000    1.3968 C   0  0  0  0  0  4           0  0  0
   -0.4952   -0.8408    3.6804 C   0  0  0  0  0  4           0  0  0
   -2.0649    0.8842    3.0676 C   0  0  0  0  0  4           0  0  0
   -4.0567   -0.9094    9.1633 C   0  0  0  0  0  4           0  0  0
   -1.7606    0.4911    8.4368 C   0  0  0  0  0  4           0  0  0
   -0.0052   -0.8519    2.3703 C   0  0  0  0  0  4           0  0  0
   -1.5754    0.8712    1.7598 C   0  0  0  0  0  4           0  0  0
   -3.5372    0.0631   10.0155 C   0  0  0  0  0  4           0  0  0
   -2.3902    0.7625    9.6530 C   0  0  0  0  0  4           0  0  0
   -4.0277   -2.1995    7.0617 C   0  0  0  0  0  4           0  0  0
   -1.5417   -0.7331    6.2705 C   0  0  0  0  0  4           0  0  0
    1.7864    2.5134    0.0479 C   0  0  0  0  0  4           0  0  0
   -0.0000    0.0000    0.0000 C   0  0  0  0  0  4           0  0  0
    1.7718   -2.5209   -0.0303 C   0  0  0  0  0  4           0  0  0
    2.5413   -3.3836   -1.0256 C   0  0  0  0  0  4           0  0  0
    2.4690   -2.9013   -2.4751 C   0  0  0  0  0  4           0  0  0
    3.2482   -3.7873   -3.4357 C   0  0  0  0  0  4           0  0  0
  1  8  1  0     0  0
  2  9  1  0     0  0
  2 24  1  0     0  0
  3 23  2  0     0  0
  4 23  1  0     0  0
  5 25  1  0     0  0
  6 10  1  0     0  0
  6 11  1  0     0  0
  6 26  1  0     0  0
  7  8  1  0     0  0
  7 10  2  0     0  0
  8 11  2  0     0  0
  9 15  2  0     0  0
  9 16  1  0     0  0
 10 27  1  0     0  0
 11 25  1  0     0  0
 12 13  1  0     0  0
 12 17  2  0     0  0
 12 23  1  0     0  0
 13 18  2  0     0  0
 13 24  1  0     0  0
 14 19  2  0     0  0
 14 20  1  0     0  0
 14 26  1  0     0  0
 15 19  1  0     0  0
 16 20  2  0     0  0
 17 21  1  0     0  0
 18 22  1  0     0  0
 21 22  2  0     0  0
 27 28  1  0     0  0
 28 29  1  0     0  0
 29 30  1  0     0  0
M  END
> <standard_type>
pIC50

> <# Confs.>
25

> <canonical_smiles>
ClC(N=C1CCCC)=C(CO)N1CC2=CC=C(OCC3=CC=CC=C3C(O)=O)C=C2

> <standard_relation>
=

> <Publication_ID>
nan

> <predicted_activity_value>
5.920818753952375

> <actual_activity_value>
6.036212172654444

> <Compound>
14

> <standard_units>
nM

> hash
17989980845622856130

$$$$
13
XXILIB    08252103513D 0   0.00000     0.00000

 30 32  0     1  0            999 V2000
    5.0080    1.4815    0.1021 Cl  0  0  0  0  0  1           0  0  0
   -2.0854    0.1357    5.2792 O   0  0  0  0  0  2           0  0  0
   -3.4593   -3.2083    6.6800 O   0  0  0  0  0  2           0  0  0
   -5.2950   -1.8583    6.7393 O   0  0  0  0  0  2           0  0  0
    1.6760    2.9488   -1.3002 O   0  0  0  0  0  2           0  0  0
    1.4519    0.0000    0.0000 N   0  0  0  0  0  3           0  0  0
    3.5357   -0.7699    0.0300 N   0  0  0  0  0  3           0  0  0
    3.5498    0.5999    0.0532 C   0  0  0  0  0  4           0  0  0
   -1.5277    0.0306    4.0357 C   0  0  0  0  0  4           0  0  0
    2.2647   -1.1169    0.0000 C   0  0  0  0  0  4           0  0  0
    2.2666    1.1149    0.0368 C   0  0  0  0  0  4           0  0  0
   -3.4230   -1.1864    7.9430 C   0  0  0  0  0  4           0  0  0
   -2.2612   -0.4896    7.5642 C   0  0  0  0  0  4           0  0  0
   -0.5415   -0.0000    1.3968 C   0  0  0  0  0  4           0  0  0
   -0.4952   -0.8408    3.6804 C   0  0  0  0  0  4           0  0  0
   -2.0649    0.8842    3.0676 C   0  0  0  0  0  4           0  0  0
   -4.0567   -0.9094    9.1633 C   0  0  0  0  0  4           0  0  0
   -1.7606    0.4911    8.4368 C   0  0  0  0  0  4           0  0  0
   -0.0052   -0.8519    2.3703 C   0  0  0  0  0  4           0  0  0
   -1.5754    0.8712    1.7598 C   0  0  0  0  0  4           0  0  0
   -3.5372    0.0631   10.0155 C   0  0  0  0  0  4           0  0  0
   -2.3902    0.7625    9.6530 C   0  0  0  0  0  4           0  0  0
   -4.0277   -2.1995    7.0617 C   0  0  0  0  0  4           0  0  0
   -1.5417   -0.7331    6.2705 C   0  0  0  0  0  4           0  0  0
    1.7864    2.5134    0.0479 C   0  0  0  0  0  4           0  0  0
   -0.0000    0.0000    0.0000 C   0  0  0  0  0  4           0  0  0
    1.7718   -2.5209   -0.0303 C   0  0  0  0  0  4           0  0  0
    1.6082   -3.0468   -1.4529 C   0  0  0  0  0  4           0  0  0
    1.1034   -4.4875   -1.5448 C   0  0  0  0  0  4           0  0  0
    0.9537   -4.9743   -2.9785 C   0  0  0  0  0  4           0  0  0
  1  8  1  0     0  0
  2  9  1  0     0  0
  2 24  1  0     0  0
  3 23  2  0     0  0
  4 23  1  0     0  0
  5 25  1  0     0  0
  6 10  1  0     0  0
  6 11  1  0     0  0
  6 26  1  0     0  0
  7  8  1  0     0  0
  7 10  2  0     0  0
  8 11  2  0     0  0
  9 15  2  0     0  0
  9 16  1  0     0  0
 10 27  1  0     0  0
 11 25  1  0     0  0
 12 13  1  0     0  0
 12 17  2  0     0  0
 12 23  1  0     0  0
 13 18  2  0     0  0
 13 24  1  0     0  0
 14 19  2  0     0  0
 14 20  1  0     0  0
 14 26  1  0     0  0
 15 19  1  0     0  0
 16 20  2  0     0  0
 17 21  1  0     0  0
 18 22  1  0     0  0
 21 22  2  0     0  0
 27 28  1  0     0  0
 28 29  1  0     0  0
 29 30  1  0     0  0
M  END
> <standard_type>
pIC50

> <# Confs.>
25

> <canonical_smiles>
ClC(N=C1CCCC)=C(CO)N1CC2=CC=C(OCC3=CC=CC=C3C(O)=O)C=C2

> <standard_relation>
=

> <Publication_ID>
nan

> <predicted_activity_value>
5.920818753952375

> <actual_activity_value>
6.036212172654444

> <Compound>
14

> <standard_units>
nM

> hash
17989980845622856130

$$$$
13
XXILIB    08252103513D 0   0.00000     0.00000

 30 32  0     1  0            999 V2000
    5.0080    1.4815    0.1021 Cl  0  0  0  0  0  1           0  0  0
   -2.0181   -0.1357    5.3052 O   0  0  0  0  0  2           0  0  0
   -1.9475    3.2083    7.2661 O   0  0  0  0  0  2           0  0  0
   -0.6315    1.8583    8.5473 O   0  0  0  0  0  2           0  0  0
    1.6760    2.9488   -1.3002 O   0  0  0  0  0  2           0  0  0
    1.4519   -0.0000   -0.0000 N   0  0  0  0  0  3           0  0  0
    3.5357   -0.7699    0.0300 N   0  0  0  0  0  3           0  0  0
    3.5498    0.5999    0.0532 C   0  0  0  0  0  4           0  0  0
   -1.5919   -0.0306    4.0108 C   0  0  0  0  0  4           0  0  0
    2.2647   -1.1169    0.0000 C   0  0  0  0  0  4           0  0  0
    2.2666    1.1149    0.0368 C   0  0  0  0  0  4           0  0  0
   -2.8256    1.1864    8.1746 C   0  0  0  0  0  4           0  0  0
   -3.4285    0.4896    7.1117 C   0  0  0  0  0  4           0  0  0
   -0.5415   -0.0000    1.3968 C   0  0  0  0  0  4           0  0  0
   -2.1150    0.8408    3.0524 C   0  0  0  0  0  4           0  0  0
   -0.5424   -0.8842    3.6579 C   0  0  0  0  0  4           0  0  0
   -3.1801    0.9094    9.5032 C   0  0  0  0  0  4           0  0  0
   -4.3864   -0.4911    7.4187 C   0  0  0  0  0  4           0  0  0
   -1.5939    0.8519    1.7544 C   0  0  0  0  0  4           0  0  0
   -0.0225   -0.8712    2.3618 C   0  0  0  0  0  4           0  0  0
   -4.1382   -0.0631    9.7825 C   0  0  0  0  0  4           0  0  0
   -4.7412   -0.7625    8.7416 C   0  0  0  0  0  4           0  0  0
   -1.7849    2.1995    7.9312 C   0  0  0  0  0  4           0  0  0
   -3.0879    0.7331    5.6711 C   0  0  0  0  0  4           0  0  0
    1.7864    2.5134    0.0479 C   0  0  0  0  0  4           0  0  0
    0.0000    0.0000    0.0000 C   0  0  0  0  0  4           0  0  0
    1.7718   -2.5209   -0.0303 C   0  0  0  0  0  4           0  0  0
    2.5413   -3.3836   -1.0256 C   0  0  0  0  0  4           0  0  0
    2.4690   -2.9013   -2.4751 C   0  0  0  0  0  4           0  0  0
    3.2482   -3.7873   -3.4357 C   0  0  0  0  0  4           0  0  0
  1  8  1  0     0  0
  2  9  1  0     0  0
  2 24  1  0     0  0
  3 23  2  0     0  0
  4 23  1  0     0  0
  5 25  1  0     0  0
  6 10  1  0     0  0
  6 11  1  0     0  0
  6 26  1  0     0  0
  7  8  1  0     0  0
  7 10  2  0     0  0
  8 11  2  0     0  0
  9 15  2  0     0  0
  9 16  1  0     0  0
 10 27  1  0     0  0
 11 25  1  0     0  0
 12 13  1  0     0  0
 12 17  2  0     0  0
 12 23  1  0     0  0
 13 18  2  0     0  0
 13 24  1  0     0  0
 14 19  2  0     0  0
 14 20  1  0     0  0
 14 26  1  0     0  0
 15 19  1  0     0  0
 16 20  2  0     0  0
 17 21  1  0     0  0
 18 22  1  0     0  0
 21 22  2  0     0  0
 27 28  1  0     0  0
 28 29  1  0     0  0
 29 30  1  0     0  0
M  END
> <standard_type>
pIC50

> <# Confs.>
25

> <canonical_smiles>
ClC(N=C1CCCC)=C(CO)N1CC2=CC=C(OCC3=CC=CC=C3C(O)=O)C=C2

> <standard_relation>
=

> <Publication_ID>
nan

> <predicted_activity_value>
5.920818753952375

> <actual_activity_value>
6.036212172654444

> <Compound>
14

> <standard_units>
nM

> hash
17989980845622856130

$$$$
13
XXILIB    08252103513D 0   0.00000     0.00000

 30 32  0     1  0            999 V2000
    5.0080    1.4815    0.1021 Cl  0  0  0  0  0  1           0  0  0
   -2.0181   -0.1357    5.3052 O   0  0  0  0  0  2           0  0  0
   -1.9475    3.2083    7.2661 O   0  0  0  0  0  2           0  0  0
   -0.6315    1.8583    8.5473 O   0  0  0  0  0  2           0  0  0
    1.6760    2.9488   -1.3002 O   0  0  0  0  0  2           0  0  0
    1.4519    0.0000    0.0000 N   0  0  0  0  0  3           0  0  0
    3.5357   -0.7699    0.0300 N   0  0  0  0  0  3           0  0  0
    3.5498    0.5999    0.0532 C   0  0  0  0  0  4           0  0  0
   -1.5919   -0.0306    4.0108 C   0  0  0  0  0  4           0  0  0
    2.2647   -1.1169    0.0000 C   0  0  0  0  0  4           0  0  0
    2.2666    1.1149    0.0368 C   0  0  0  0  0  4           0  0  0
   -2.8256    1.1864    8.1746 C   0  0  0  0  0  4           0  0  0
   -3.4285    0.4896    7.1117 C   0  0  0  0  0  4           0  0  0
   -0.5415   -0.0000    1.3968 C   0  0  0  0  0  4           0  0  0
   -2.1150    0.8408    3.0524 C   0  0  0  0  0  4           0  0  0
   -0.5424   -0.8842    3.6579 C   0  0  0  0  0  4           0  0  0
   -3.1801    0.9094    9.5032 C   0  0  0  0  0  4           0  0  0
   -4.3864   -0.4911    7.4187 C   0  0  0  0  0  4           0  0  0
   -1.5939    0.8519    1.7544 C   0  0  0  0  0  4           0  0  0
   -0.0225   -0.8712    2.3618 C   0  0  0  0  0  4           0  0  0
   -4.1382   -0.0631    9.7825 C   0  0  0  0  0  4           0  0  0
   -4.7412   -0.7625    8.7416 C   0  0  0  0  0  4           0  0  0
   -1.7849    2.1995    7.9312 C   0  0  0  0  0  4           0  0  0
   -3.0879    0.7331    5.6711 C   0  0  0  0  0  4           0  0  0
    1.7864    2.5134    0.0479 C   0  0  0  0  0  4           0  0  0
    0.0000    0.0000    0.0000 C   0  0  0  0  0  4           0  0  0
    1.7718   -2.5209   -0.0303 C   0  0  0  0  0  4           0  0  0
    1.6082   -3.0468   -1.4529 C   0  0  0  0  0  4           0  0  0
    1.1034   -4.4875   -1.5448 C   0  0  0  0  0  4           0  0  0
    0.9537   -4.9743   -2.9785 C   0  0  0  0  0  4           0  0  0
  1  8  1  0     0  0
  2  9  1  0     0  0
  2 24  1  0     0  0
  3 23  2  0     0  0
  4 23  1  0     0  0
  5 25  1  0     0  0
  6 10  1  0     0  0
  6 11  1  0     0  0
  6 26  1  0     0  0
  7  8  1  0     0  0
  7 10  2  0     0  0
  8 11  2  0     0  0
  9 15  2  0     0  0
  9 16  1  0     0  0
 10 27  1  0     0  0
 11 25  1  0     0  0
 12 13  1  0     0  0
 12 17  2  0     0  0
 12 23  1  0     0  0
 13 18  2  0     0  0
 13 24  1  0     0  0
 14 19  2  0     0  0
 14 20  1  0     0  0
 14 26  1  0     0  0
 15 19  1  0     0  0
 16 20  2  0     0  0
 17 21  1  0     0  0
 18 22  1  0     0  0
 21 22  2  0     0  0
 27 28  1  0     0  0
 28 29  1  0     0  0
 29 30  1  0     0  0
M  END
> <standard_type>
pIC50

> <# Confs.>
25

> <canonical_smiles>
ClC(N=C1CCCC)=C(CO)N1CC2=CC=C(OCC3=CC=CC=C3C(O)=O)C=C2

> <standard_relation>
=

> <Publication_ID>
nan

> <predicted_activity_value>
5.920818753952375

> <actual_activity_value>
6.036212172654444

> <Compound>
14

> <standard_units>
nM

> hash
17989980845622856130

$$$$
13
XXILIB    08252103513D 0   0.00000     0.00000

 30 32  0     1  0            999 V2000
    5.0080    1.4815    0.1021 Cl  0  0  0  0  0  1           0  0  0
   -2.0181   -0.1357    5.3052 O   0  0  0  0  0  2           0  0  0
   -5.8634   -0.8020    5.6936 O   0  0  0  0  0  2           0  0  0
   -4.9019   -2.5824    6.7431 O   0  0  0  0  0  2           0  0  0
    1.6760    2.9488   -1.3002 O   0  0  0  0  0  2           0  0  0
    1.4519   -0.0000   -0.0000 N   0  0  0  0  0  3           0  0  0
    3.5357   -0.7699    0.0300 N   0  0  0  0  0  3           0  0  0
    3.5498    0.5999    0.0532 C   0  0  0  0  0  4           0  0  0
   -1.5919   -0.0306    4.0108 C   0  0  0  0  0  4           0  0  0
    2.2647   -1.1169    0.0000 C   0  0  0  0  0  4           0  0  0
    2.2666    1.1149    0.0368 C   0  0  0  0  0  4           0  0  0
   -4.3813   -0.4574    7.5290 C   0  0  0  0  0  4           0  0  0
   -3.4285    0.4896    7.1117 C   0  0  0  0  0  4           0  0  0
   -0.5415   -0.0000    1.3968 C   0  0  0  0  0  4           0  0  0
   -2.1150    0.8408    3.0524 C   0  0  0  0  0  4           0  0  0
   -0.5424   -0.8842    3.6579 C   0  0  0  0  0  4           0  0  0
   -4.6629   -0.6353    8.8915 C   0  0  0  0  0  4           0  0  0
   -2.7753    1.2524    8.0943 C   0  0  0  0  0  4           0  0  0
   -1.5939    0.8519    1.7544 C   0  0  0  0  0  4           0  0  0
   -0.0225   -0.8712    2.3618 C   0  0  0  0  0  4           0  0  0
   -3.9970    0.1283    9.8482 C   0  0  0  0  0  4           0  0  0
   -3.0539    1.0710    9.4503 C   0  0  0  0  0  4           0  0  0
   -5.1339   -1.2645    6.5540 C   0  0  0  0  0  4           0  0  0
   -3.0879    0.7331    5.6711 C   0  0  0  0  0  4           0  0  0
    1.7864    2.5134    0.0479 C   0  0  0  0  0  4           0  0  0
    0.0000    0.0000    0.0000 C   0  0  0  0  0  4           0  0  0
    1.7718   -2.5209   -0.0303 C   0  0  0  0  0  4           0  0  0
    2.5413   -3.3836   -1.0256 C   0  0  0  0  0  4           0  0  0
    2.4690   -2.9013   -2.4751 C   0  0  0  0  0  4           0  0  0
    3.2482   -3.7873   -3.4357 C   0  0  0  0  0  4           0  0  0
  1  8  1  0     0  0
  2  9  1  0     0  0
  2 24  1  0     0  0
  3 23  2  0     0  0
  4 23  1  0     0  0
  5 25  1  0     0  0
  6 10  1  0     0  0
  6 11  1  0     0  0
  6 26  1  0     0  0
  7  8  1  0     0  0
  7 10  2  0     0  0
  8 11  2  0     0  0
  9 15  2  0     0  0
  9 16  1  0     0  0
 10 27  1  0     0  0
 11 25  1  0     0  0
 12 13  1  0     0  0
 12 17  2  0     0  0
 12 23  1  0     0  0
 13 18  2  0     0  0
 13 24  1  0     0  0
 14 19  2  0     0  0
 14 20  1  0     0  0
 14 26  1  0     0  0
 15 19  1  0     0  0
 16 20  2  0     0  0
 17 21  1  0     0  0
 18 22  1  0     0  0
 21 22  2  0     0  0
 27 28  1  0     0  0
 28 29  1  0     0  0
 29 30  1  0     0  0
M  END
> <standard_type>
pIC50

> <# Confs.>
25

> <canonical_smiles>
ClC(N=C1CCCC)=C(CO)N1CC2=CC=C(OCC3=CC=CC=C3C(O)=O)C=C2

> <standard_relation>
=

> <Publication_ID>
nan

> <predicted_activity_value>
5.920818753952375

> <actual_activity_value>
6.036212172654444

> <Compound>
14

> <standard_units>
nM

> hash
17989980845622856130

$$$$
13
XXILIB    08252103513D 0   0.00000     0.00000

 30 32  0     1  0            999 V2000
    5.0080   -1.4815   -0.1021 Cl  0  0  0  0  0  1           0  0  0
   -1.9861    0.1214    5.3177 O   0  0  0  0  0  2           0  0  0
   -4.9707   -0.4158    5.4559 O   0  0  0  0  0  2           0  0  0
   -6.3147   -1.1553    7.1419 O   0  0  0  0  0  2           0  0  0
    1.6760   -2.9488    1.3002 O   0  0  0  0  0  2           0  0  0
    1.4519   -0.0000    0.0000 N   0  0  0  0  0  3           0  0  0
    3.5357    0.7699   -0.0300 N   0  0  0  0  0  3           0  0  0
    3.5498   -0.5999   -0.0532 C   0  0  0  0  0  4           0  0  0
   -1.5169   -0.0027    4.0399 C   0  0  0  0  0  4           0  0  0
    2.2647    1.1169   -0.0000 C   0  0  0  0  0  4           0  0  0
    2.2666   -1.1149   -0.0368 C   0  0  0  0  0  4           0  0  0
   -4.1177   -0.6124    7.6737 C   0  0  0  0  0  4           0  0  0
   -2.7550   -0.7888    7.3728 C   0  0  0  0  0  4           0  0  0
   -0.5415    0.0000    1.3968 C   0  0  0  0  0  4           0  0  0
   -1.2868   -1.2088    3.3735 C   0  0  0  0  0  4           0  0  0
   -1.2590    1.2026    3.3800 C   0  0  0  0  0  4           0  0  0
   -4.5279   -0.3107    8.9806 C   0  0  0  0  0  4           0  0  0
   -1.8213   -0.6484    8.4132 C   0  0  0  0  0  4           0  0  0
   -0.7996   -1.2048    2.0624 C   0  0  0  0  0  4           0  0  0
   -0.7736    1.2049    2.0706 C   0  0  0  0  0  4           0  0  0
   -3.5837   -0.1833    9.9975 C   0  0  0  0  0  4           0  0  0
   -2.2317   -0.3523    9.7144 C   0  0  0  0  0  4           0  0  0
   -5.1494   -0.7048    6.6269 C   0  0  0  0  0  4           0  0  0
   -2.2515   -1.1047    5.9953 C   0  0  0  0  0  4           0  0  0
    1.7864   -2.5134   -0.0479 C   0  0  0  0  0  4           0  0  0
    0.0000    0.0000    0.0000 C   0  0  0  0  0  4           0  0  0
    1.7718    2.5209    0.0303 C   0  0  0  0  0  4           0  0  0
    2.5015    3.4126   -0.9695 C   0  0  0  0  0  4           0  0  0
    2.3709    2.9726   -2.4284 C   0  0  0  0  0  4           0  0  0
    0.9290    2.9425   -2.9132 C   0  0  0  0  0  4           0  0  0
  1  8  1  0     0  0
  2  9  1  0     0  0
  2 24  1  0     0  0
  3 23  2  0     0  0
  4 23  1  0     0  0
  5 25  1  0     0  0
  6 10  1  0     0  0
  6 11  1  0     0  0
  6 26  1  0     0  0
  7  8  1  0     0  0
  7 10  2  0     0  0
  8 11  2  0     0  0
  9 15  2  0     0  0
  9 16  1  0     0  0
 10 27  1  0     0  0
 11 25  1  0     0  0
 12 13  1  0     0  0
 12 17  2  0     0  0
 12 23  1  0     0  0
 13 18  2  0     0  0
 13 24  1  0     0  0
 14 19  2  0     0  0
 14 20  1  0     0  0
 14 26  1  0     0  0
 15 19  1  0     0  0
 16 20  2  0     0  0
 17 21  1  0     0  0
 18 22  1  0     0  0
 21 22  2  0     0  0
 27 28  1  0     0  0
 28 29  1  0     0  0
 29 30  1  0     0  0
M  END
> <standard_type>
pIC50

> <# Confs.>
25

> <canonical_smiles>
ClC(N=C1CCCC)=C(CO)N1CC2=CC=C(OCC3=CC=CC=C3C(O)=O)C=C2

> <standard_relation>
=

> <Publication_ID>
nan

> <predicted_activity_value>
5.920818753952375

> <actual_activity_value>
6.036212172654444

> <Compound>
14

> <standard_units>
nM

> hash
17989980845622856130

$$$$
13
XXILIB    08252103513D 0   0.00000     0.00000

 30 32  0     1  0            999 V2000
    5.0080    1.4815    0.1021 Cl  0  0  0  0  0  1           0  0  0
   -2.0854    0.1357    5.2792 O   0  0  0  0  0  2           0  0  0
   -3.4593   -3.2083    6.6800 O   0  0  0  0  0  2           0  0  0
   -5.2950   -1.8583    6.7393 O   0  0  0  0  0  2           0  0  0
    1.6760    2.9488   -1.3002 O   0  0  0  0  0  2           0  0  0
    1.4519   -0.0000   -0.0000 N   0  0  0  0  0  3           0  0  0
    3.5357   -0.7699    0.0300 N   0  0  0  0  0  3           0  0  0
    3.5498    0.5999    0.0532 C   0  0  0  0  0  4           0  0  0
   -1.5277    0.0306    4.0357 C   0  0  0  0  0  4           0  0  0
    2.2647   -1.1169    0.0000 C   0  0  0  0  0  4           0  0  0
    2.2666    1.1149    0.0368 C   0  0  0  0  0  4           0  0  0
   -3.4230   -1.1864    7.9430 C   0  0  0  0  0  4           0  0  0
   -2.2612   -0.4896    7.5642 C   0  0  0  0  0  4           0  0  0
   -0.5415   -0.0000    1.3968 C   0  0  0  0  0  4           0  0  0
   -0.4952   -0.8408    3.6804 C   0  0  0  0  0  4           0  0  0
   -2.0649    0.8842    3.0676 C   0  0  0  0  0  4           0  0  0
   -4.0567   -0.9094    9.1633 C   0  0  0  0  0  4           0  0  0
   -1.7606    0.4911    8.4368 C   0  0  0  0  0  4           0  0  0
   -0.0052   -0.8519    2.3703 C   0  0  0  0  0  4           0  0  0
   -1.5754    0.8712    1.7598 C   0  0  0  0  0  4           0  0  0
   -3.5372    0.0631   10.0155 C   0  0  0  0  0  4           0  0  0
   -2.3902    0.7625    9.6530 C   0  0  0  0  0  4           0  0  0
   -4.0277   -2.1995    7.0617 C   0  0  0  0  0  4           0  0  0
   -1.5417   -0.7331    6.2705 C   0  0  0  0  0  4           0  0  0
    1.7864    2.5134    0.0479 C   0  0  0  0  0  4           0  0  0
   -0.0000    0.0000    0.0000 C   0  0  0  0  0  4           0  0  0
    1.7718   -2.5209   -0.0303 C   0  0  0  0  0  4           0  0  0
    2.5015   -3.4126    0.9695 C   0  0  0  0  0  4           0  0  0
    2.0351   -4.8691    0.9821 C   0  0  0  0  0  4           0  0  0
    2.7862   -5.7247    1.9913 C   0  0  0  0  0  4           0  0  0
  1  8  1  0     0  0
  2  9  1  0     0  0
  2 24  1  0     0  0
  3 23  2  0     0  0
  4 23  1  0     0  0
  5 25  1  0     0  0
  6 10  1  0     0  0
  6 11  1  0     0  0
  6 26  1  0     0  0
  7  8  1  0     0  0
  7 10  2  0     0  0
  8 11  2  0     0  0
  9 15  2  0     0  0
  9 16  1  0     0  0
 10 27  1  0     0  0
 11 25  1  0     0  0
 12 13  1  0     0  0
 12 17  2  0     0  0
 12 23  1  0     0  0
 13 18  2  0     0  0
 13 24  1  0     0  0
 14 19  2  0     0  0
 14 20  1  0     0  0
 14 26  1  0     0  0
 15 19  1  0     0  0
 16 20  2  0     0  0
 17 21  1  0     0  0
 18 22  1  0     0  0
 21 22  2  0     0  0
 27 28  1  0     0  0
 28 29  1  0     0  0
 29 30  1  0     0  0
M  END
> <standard_type>
pIC50

> <# Confs.>
25

> <canonical_smiles>
ClC(N=C1CCCC)=C(CO)N1CC2=CC=C(OCC3=CC=CC=C3C(O)=O)C=C2

> <standard_relation>
=

> <Publication_ID>
nan

> <predicted_activity_value>
5.920818753952375

> <actual_activity_value>
6.036212172654444

> <Compound>
14

> <standard_units>
nM

> hash
17989980845622856130

$$$$
13
XXILIB    08252103513D 0   0.00000     0.00000

 30 32  0     1  0            999 V2000
    5.0080    1.4815    0.1021 Cl  0  0  0  0  0  1           0  0  0
   -2.0854    0.1357    5.2792 O   0  0  0  0  0  2           0  0  0
    0.4933    0.8020    8.1580 O   0  0  0  0  0  2           0  0  0
   -0.9243    2.5824    8.2852 O   0  0  0  0  0  2           0  0  0
    1.6760    2.9488   -1.3002 O   0  0  0  0  0  2           0  0  0
    1.4519   -0.0000   -0.0000 N   0  0  0  0  0  3           0  0  0
    3.5357   -0.7699    0.0300 N   0  0  0  0  0  3           0  0  0
    3.5498    0.5999    0.0532 C   0  0  0  0  0  4           0  0  0
   -1.5277    0.0306    4.0357 C   0  0  0  0  0  4           0  0  0
    2.2647   -1.1169    0.0000 C   0  0  0  0  0  4           0  0  0
    2.2666    1.1149    0.0368 C   0  0  0  0  0  4           0  0  0
   -1.8387    0.4574    8.5147 C   0  0  0  0  0  4           0  0  0
   -2.2612   -0.4896    7.5642 C   0  0  0  0  0  4           0  0  0
   -0.5415   -0.0000    1.3968 C   0  0  0  0  0  4           0  0  0
   -0.4952   -0.8408    3.6804 C   0  0  0  0  0  4           0  0  0
   -2.0649    0.8842    3.0676 C   0  0  0  0  0  4           0  0  0
   -2.5491    0.6353    9.7110 C   0  0  0  0  0  4           0  0  0
   -3.4060   -1.2524    7.8498 C   0  0  0  0  0  4           0  0  0
   -0.0052   -0.8519    2.3703 C   0  0  0  0  0  4           0  0  0
   -1.5754    0.8712    1.7598 C   0  0  0  0  0  4           0  0  0
   -3.6859   -0.1283    9.9688 C   0  0  0  0  0  4           0  0  0
   -4.1143   -1.0710    9.0392 C   0  0  0  0  0  4           0  0  0
   -0.6255    1.2645    8.3019 C   0  0  0  0  0  4           0  0  0
   -1.5417   -0.7331    6.2705 C   0  0  0  0  0  4           0  0  0
    1.7864    2.5134    0.0479 C   0  0  0  0  0  4           0  0  0
   -0.0000    0.0000    0.0000 C   0  0  0  0  0  4           0  0  0
    1.7718   -2.5209   -0.0303 C   0  0  0  0  0  4           0  0  0
    2.5413   -3.3836   -1.0256 C   0  0  0  0  0  4           0  0  0
    2.4690   -2.9013   -2.4751 C   0  0  0  0  0  4           0  0  0
    3.2482   -3.7873   -3.4357 C   0  0  0  0  0  4           0  0  0
  1  8  1  0     0  0
  2  9  1  0     0  0
  2 24  1  0     0  0
  3 23  2  0     0  0
  4 23  1  0     0  0
  5 25  1  0     0  0
  6 10  1  0     0  0
  6 11  1  0     0  0
  6 26  1  0     0  0
  7  8  1  0     0  0
  7 10  2  0     0  0
  8 11  2  0     0  0
  9 15  2  0     0  0
  9 16  1  0     0  0
 10 27  1  0     0  0
 11 25  1  0     0  0
 12 13  1  0     0  0
 12 17  2  0     0  0
 12 23  1  0     0  0
 13 18  2  0     0  0
 13 24  1  0     0  0
 14 19  2  0     0  0
 14 20  1  0     0  0
 14 26  1  0     0  0
 15 19  1  0     0  0
 16 20  2  0     0  0
 17 21  1  0     0  0
 18 22  1  0     0  0
 21 22  2  0     0  0
 27 28  1  0     0  0
 28 29  1  0     0  0
 29 30  1  0     0  0
M  END
> <standard_type>
pIC50

> <# Confs.>
25

> <canonical_smiles>
ClC(N=C1CCCC)=C(CO)N1CC2=CC=C(OCC3=CC=CC=C3C(O)=O)C=C2

> <standard_relation>
=

> <Publication_ID>
nan

> <predicted_activity_value>
5.920818753952375

> <actual_activity_value>
6.036212172654444

> <Compound>
14

> <standard_units>
nM

> hash
17989980845622856130

$$$$
13
XXILIB    08252103513D 0   0.00000     0.00000

 30 32  0     1  0            999 V2000
    5.0080    1.4815    0.1021 Cl  0  0  0  0  0  1           0  0  0
   -2.0854    0.1357    5.2792 O   0  0  0  0  0  2           0  0  0
    0.4933    0.8020    8.1580 O   0  0  0  0  0  2           0  0  0
   -0.9243    2.5824    8.2852 O   0  0  0  0  0  2           0  0  0
    1.6760    2.9488   -1.3002 O   0  0  0  0  0  2           0  0  0
    1.4519    0.0000    0.0000 N   0  0  0  0  0  3           0  0  0
    3.5357   -0.7699    0.0300 N   0  0  0  0  0  3           0  0  0
    3.5498    0.5999    0.0532 C   0  0  0  0  0  4           0  0  0
   -1.5277    0.0306    4.0357 C   0  0  0  0  0  4           0  0  0
    2.2647   -1.1169    0.0000 C   0  0  0  0  0  4           0  0  0
    2.2666    1.1149    0.0368 C   0  0  0  0  0  4           0  0  0
   -1.8387    0.4574    8.5147 C   0  0  0  0  0  4           0  0  0
   -2.2612   -0.4896    7.5642 C   0  0  0  0  0  4           0  0  0
   -0.5415   -0.0000    1.3968 C   0  0  0  0  0  4           0  0  0
   -0.4952   -0.8408    3.6804 C   0  0  0  0  0  4           0  0  0
   -2.0649    0.8842    3.0676 C   0  0  0  0  0  4           0  0  0
   -2.5491    0.6353    9.7110 C   0  0  0  0  0  4           0  0  0
   -3.4060   -1.2524    7.8498 C   0  0  0  0  0  4           0  0  0
   -0.0052   -0.8519    2.3703 C   0  0  0  0  0  4           0  0  0
   -1.5754    0.8712    1.7598 C   0  0  0  0  0  4           0  0  0
   -3.6859   -0.1283    9.9688 C   0  0  0  0  0  4           0  0  0
   -4.1143   -1.0710    9.0392 C   0  0  0  0  0  4           0  0  0
   -0.6255    1.2645    8.3019 C   0  0  0  0  0  4           0  0  0
   -1.5417   -0.7331    6.2705 C   0  0  0  0  0  4           0  0  0
    1.7864    2.5134    0.0479 C   0  0  0  0  0  4           0  0  0
   -0.0000    0.0000    0.0000 C   0  0  0  0  0  4           0  0  0
    1.7718   -2.5209   -0.0303 C   0  0  0  0  0  4           0  0  0
    1.6082   -3.0468   -1.4529 C   0  0  0  0  0  4           0  0  0
    1.1034   -4.4875   -1.5448 C   0  0  0  0  0  4           0  0  0
    0.9537   -4.9743   -2.9785 C   0  0  0  0  0  4           0  0  0
  1  8  1  0     0  0
  2  9  1  0     0  0
  2 24  1  0     0  0
  3 23  2  0     0  0
  4 23  1  0     0  0
  5 25  1  0     0  0
  6 10  1  0     0  0
  6 11  1  0     0  0
  6 26  1  0     0  0
  7  8  1  0     0  0
  7 10  2  0     0  0
  8 11  2  0     0  0
  9 15  2  0     0  0
  9 16  1  0     0  0
 10 27  1  0     0  0
 11 25  1  0     0  0
 12 13  1  0     0  0
 12 17  2  0     0  0
 12 23  1  0     0  0
 13 18  2  0     0  0
 13 24  1  0     0  0
 14 19  2  0     0  0
 14 20  1  0     0  0
 14 26  1  0     0  0
 15 19  1  0     0  0
 16 20  2  0     0  0
 17 21  1  0     0  0
 18 22  1  0     0  0
 21 22  2  0     0  0
 27 28  1  0     0  0
 28 29  1  0     0  0
 29 30  1  0     0  0
M  END
> <standard_type>
pIC50

> <# Confs.>
25

> <canonical_smiles>
ClC(N=C1CCCC)=C(CO)N1CC2=CC=C(OCC3=CC=CC=C3C(O)=O)C=C2

> <standard_relation>
=

> <Publication_ID>
nan

> <predicted_activity_value>
5.920818753952375

> <actual_activity_value>
6.036212172654444

> <Compound>
14

> <standard_units>
nM

> hash
17989980845622856130

$$$$
16
XXILIB    08252103513D 0   0.00000     0.00000

 34 36  0     1  0            999 V2000
    3.3007   -1.4761    4.6752 Cl  0  0  0  0  0  1           0  0  0
   -9.8586   -0.0406   -1.8012 O   0  0  0  0  0  2           0  0  0
   -4.8662    0.0949   -2.1788 O   0  0  0  0  0  2           0  0  0
    3.3921   -2.8894    1.0374 O   0  0  0  0  0  2           0  0  0
   -9.8567   -0.6204   -4.0041 O   0  0  0  0  0  2           0  0  0
    2.0229    0.0000    1.3517 N   0  0  0  0  0  3           0  0  0
    2.7702    0.7729    3.2963 N   0  0  0  0  0  3           0  0  0
   -4.2221    0.0472    0.0543 N   0  0  0  0  0  3           0  0  0
    2.7814   -0.5972    3.3094 C   0  0  0  0  0  4           0  0  0
    2.3165    1.1181    2.1082 C   0  0  0  0  0  4           0  0  0
    2.3291   -1.1136    2.1092 C   0  0  0  0  0  4           0  0  0
   -2.8151    0.0346   -0.0004 C   0  0  0  0  0  4           0  0  0
   -7.8152   -1.9873   -1.3370 C   0  0  0  0  0  4           0  0  0
   -7.1242   -1.3154   -0.3043 C   0  0  0  0  0  4           0  0  0
    0.0000    0.0000    0.0000 C   0  0  0  0  0  4           0  0  0
   -2.1086    0.0153    1.2063 C   0  0  0  0  0  4           0  0  0
   -2.1114    0.0406   -1.2090 C   0  0  0  0  0  4           0  0  0
   -8.2740   -3.2989   -1.1109 C   0  0  0  0  0  4           0  0  0
   -6.9231   -1.9748    0.9228 C   0  0  0  0  0  4           0  0  0
   -0.7119    0.0000    1.2059 C   0  0  0  0  0  4           0  0  0
   -0.7134    0.0252   -1.2060 C   0  0  0  0  0  4           0  0  0
   -8.0697   -3.9330    0.1135 C   0  0  0  0  0  4           0  0  0
   -7.3959   -3.2698    1.1316 C   0  0  0  0  0  4           0  0  0
   -9.3429   -0.6165   -2.7488 C   0  0  0  0  0  4           0  0  0
   -5.1435    0.0667   -0.9817 C   0  0  0  0  0  4           0  0  0
    2.1677   -2.5140    1.6566 C   0  0  0  0  0  4           0  0  0
    3.3490   -4.2282    0.5610 C   0  0  0  0  0  4           0  0  0
    1.4983    0.0000    0.0000 C   0  0  0  0  0  4           0  0  0
    2.1356    2.5200    1.6472 C   0  0  0  0  0  4           0  0  0
   -8.0549   -1.3820   -2.6882 C   0  0  0  0  0  4           0  0  0
   -6.5655    0.0745   -0.4625 C   0  0  0  0  0  4           0  0  0
    3.3795    3.0691    0.9550 C   0  0  0  0  0  4           0  0  0
    3.1669    4.5074    0.4926 C   0  0  0  0  0  4           0  0  0
    4.4041    5.0589   -0.1980 C   0  0  0  0  0  4           0  0  0
  1  9  1  0     0  0
  2 24  2  0     0  0
  3 25  2  0     0  0
  4 26  1  0     0  0
  4 27  1  0     0  0
  5 24  1  0     0  0
  6 10  1  0     0  0
  6 11  1  0     0  0
  6 28  1  0     0  0
  7  9  1  0     0  0
  7 10  2  0     0  0
  8 12  1  0     0  0
  8 25  1  0     0  0
  9 11  2  0     0  0
 10 29  1  0     0  0
 11 26  1  0     0  0
 12 16  2  0     0  0
 12 17  1  0     0  0
 13 14  1  0     0  0
 13 18  2  0     0  0
 13 30  1  0     0  0
 14 19  2  0     0  0
 14 31  1  0     0  0
 15 20  2  0     0  0
 15 21  1  0     0  0
 15 28  1  0     0  0
 16 20  1  0     0  0
 17 21  2  0     0  0
 18 22  1  0     0  0
 19 23  1  0     0  0
 22 23  2  0     0  0
 24 30  1  0     0  0
 25 31  1  0     0  0
 29 32  1  0     0  0
 32 33  1  0     0  0
 33 34  1  0     0  0
M  END
> <standard_type>
pIC50

> <# Confs.>
25

> <canonical_smiles>
O=C(CC1=CC=CC=C1CC(O)=O)NC2=CC=C(CN3C(COC)=C(Cl)N=C3CCCC)C=C2

> <standard_relation>
=

> <Publication_ID>
nan

> <predicted_activity_value>
5.1487416512809245

> <actual_activity_value>
5.552841968657781

> <Compound>
17

> <standard_units>
nM

> hash
15369469530252257554

$$$$
16
XXILIB    08252103513D 0   0.00000     0.00000

 34 36  0     1  0            999 V2000
    3.3217    1.4761    4.6670 Cl  0  0  0  0  0  1           0  0  0
   -9.8586   -0.0406   -1.8012 O   0  0  0  0  0  2           0  0  0
   -4.8662    0.0949   -2.1788 O   0  0  0  0  0  2           0  0  0
    3.3401    2.9158    1.0597 O   0  0  0  0  0  2           0  0  0
   -9.8567   -0.6204   -4.0041 O   0  0  0  0  0  2           0  0  0
    2.0229    0.0000    1.3517 N   0  0  0  0  0  3           0  0  0
    2.7831   -0.7729    3.2912 N   0  0  0  0  0  3           0  0  0
   -4.2221    0.0472    0.0543 N   0  0  0  0  0  3           0  0  0
    2.7837    0.5972    3.3086 C   0  0  0  0  0  4           0  0  0
    2.3165   -1.1181    2.1082 C   0  0  0  0  0  4           0  0  0
    2.3079    1.1136    2.1174 C   0  0  0  0  0  4           0  0  0
   -2.8151    0.0346   -0.0004 C   0  0  0  0  0  4           0  0  0
   -7.8152   -1.9873   -1.3370 C   0  0  0  0  0  4           0  0  0
   -7.1242   -1.3154   -0.3043 C   0  0  0  0  0  4           0  0  0
    0.0000    0.0000    0.0000 C   0  0  0  0  0  4           0  0  0
   -2.1086    0.0153    1.2063 C   0  0  0  0  0  4           0  0  0
   -2.1114    0.0406   -1.2090 C   0  0  0  0  0  4           0  0  0
   -8.2740   -3.2989   -1.1109 C   0  0  0  0  0  4           0  0  0
   -6.9231   -1.9748    0.9228 C   0  0  0  0  0  4           0  0  0
   -0.7119    0.0000    1.2059 C   0  0  0  0  0  4           0  0  0
   -0.7134    0.0252   -1.2060 C   0  0  0  0  0  4           0  0  0
   -8.0697   -3.9330    0.1135 C   0  0  0  0  0  4           0  0  0
   -7.3959   -3.2698    1.1316 C   0  0  0  0  0  4           0  0  0
   -9.3429   -0.6165   -2.7488 C   0  0  0  0  0  4           0  0  0
   -5.1435    0.0667   -0.9817 C   0  0  0  0  0  4           0  0  0
    2.1218    2.5140    1.6744 C   0  0  0  0  0  4           0  0  0
    3.2734    4.2569    0.5927 C   0  0  0  0  0  4           0  0  0
    1.4983    0.0000    0.0000 C   0  0  0  0  0  4           0  0  0
    2.1391   -2.5200    1.6459 C   0  0  0  0  0  4           0  0  0
   -8.0549   -1.3820   -2.6882 C   0  0  0  0  0  4           0  0  0
   -6.5655    0.0745   -0.4625 C   0  0  0  0  0  4           0  0  0
    3.3856   -3.0666    0.9564 C   0  0  0  0  0  4           0  0  0
    3.1765   -4.5049    0.4925 C   0  0  0  0  0  4           0  0  0
    4.4163   -5.0539   -0.1954 C   0  0  0  0  0  4           0  0  0
  1  9  1  0     0  0
  2 24  2  0     0  0
  3 25  2  0     0  0
  4 26  1  0     0  0
  4 27  1  0     0  0
  5 24  1  0     0  0
  6 10  1  0     0  0
  6 11  1  0     0  0
  6 28  1  0     0  0
  7  9  1  0     0  0
  7 10  2  0     0  0
  8 12  1  0     0  0
  8 25  1  0     0  0
  9 11  2  0     0  0
 10 29  1  0     0  0
 11 26  1  0     0  0
 12 16  2  0     0  0
 12 17  1  0     0  0
 13 14  1  0     0  0
 13 18  2  0     0  0
 13 30  1  0     0  0
 14 19  2  0     0  0
 14 31  1  0     0  0
 15 20  2  0     0  0
 15 21  1  0     0  0
 15 28  1  0     0  0
 16 20  1  0     0  0
 17 21  2  0     0  0
 18 22  1  0     0  0
 19 23  1  0     0  0
 22 23  2  0     0  0
 24 30  1  0     0  0
 25 31  1  0     0  0
 29 32  1  0     0  0
 32 33  1  0     0  0
 33 34  1  0     0  0
M  END
> <standard_type>
pIC50

> <# Confs.>
25

> <canonical_smiles>
O=C(CC1=CC=CC=C1CC(O)=O)NC2=CC=C(CN3C(COC)=C(Cl)N=C3CCCC)C=C2

> <standard_relation>
=

> <Publication_ID>
nan

> <predicted_activity_value>
5.1487416512809245

> <actual_activity_value>
5.552841968657781

> <Compound>
17

> <standard_units>
nM

> hash
15369469530252257554

$$$$
16
XXILIB    08252103513D 0   0.00000     0.00000

 34 36  0     1  0            999 V2000
    3.3217    1.4761    4.6670 Cl  0  0  0  0  0  1           0  0  0
   -9.8603    0.3694   -1.7804 O   0  0  0  0  0  2           0  0  0
   -4.8662    0.0949   -2.1788 O   0  0  0  0  0  2           0  0  0
    3.3401    2.9158    1.0597 O   0  0  0  0  0  2           0  0  0
   -9.8672    1.1069   -3.9357 O   0  0  0  0  0  2           0  0  0
    2.0229    0.0000    1.3517 N   0  0  0  0  0  3           0  0  0
    2.7831   -0.7729    3.2912 N   0  0  0  0  0  3           0  0  0
   -4.2221    0.0472    0.0543 N   0  0  0  0  0  3           0  0  0
    2.7837    0.5972    3.3086 C   0  0  0  0  0  4           0  0  0
    2.3165   -1.1181    2.1082 C   0  0  0  0  0  4           0  0  0
    2.3079    1.1136    2.1174 C   0  0  0  0  0  4           0  0  0
   -2.8151    0.0346   -0.0004 C   0  0  0  0  0  4           0  0  0
   -7.7504    2.2182   -1.2226 C   0  0  0  0  0  4           0  0  0
   -7.0812    1.4702   -0.2285 C   0  0  0  0  0  4           0  0  0
    0.0000    0.0000    0.0000 C   0  0  0  0  0  4           0  0  0
   -2.1086    0.0153    1.2063 C   0  0  0  0  0  4           0  0  0
   -2.1114    0.0406   -1.2090 C   0  0  0  0  0  4           0  0  0
   -8.2280    3.5037   -0.9044 C   0  0  0  0  0  4           0  0  0
   -6.9047    2.0367    1.0478 C   0  0  0  0  0  4           0  0  0
   -0.7119    0.0000    1.2059 C   0  0  0  0  0  4           0  0  0
   -0.7134    0.0252   -1.2060 C   0  0  0  0  0  4           0  0  0
   -8.0385    4.0495    0.3641 C   0  0  0  0  0  4           0  0  0
   -7.3745    3.3165    1.3399 C   0  0  0  0  0  4           0  0  0
   -9.3265    0.9758   -2.6985 C   0  0  0  0  0  4           0  0  0
   -5.1435    0.0667   -0.9817 C   0  0  0  0  0  4           0  0  0
    2.1218    2.5140    1.6744 C   0  0  0  0  0  4           0  0  0
    3.2734    4.2569    0.5927 C   0  0  0  0  0  4           0  0  0
    1.4983    0.0000    0.0000 C   0  0  0  0  0  4           0  0  0
    2.1391   -2.5200    1.6459 C   0  0  0  0  0  4           0  0  0
   -8.0129    1.6925   -2.6027 C   0  0  0  0  0  4           0  0  0
   -6.5655    0.0745   -0.4625 C   0  0  0  0  0  4           0  0  0
    3.3856   -3.0666    0.9564 C   0  0  0  0  0  4           0  0  0
    3.1765   -4.5049    0.4925 C   0  0  0  0  0  4           0  0  0
    4.4163   -5.0539   -0.1954 C   0  0  0  0  0  4           0  0  0
  1  9  1  0     0  0
  2 24  2  0     0  0
  3 25  2  0     0  0
  4 26  1  0     0  0
  4 27  1  0     0  0
  5 24  1  0     0  0
  6 10  1  0     0  0
  6 11  1  0     0  0
  6 28  1  0     0  0
  7  9  1  0     0  0
  7 10  2  0     0  0
  8 12  1  0     0  0
  8 25  1  0     0  0
  9 11  2  0     0  0
 10 29  1  0     0  0
 11 26  1  0     0  0
 12 16  2  0     0  0
 12 17  1  0     0  0
 13 14  1  0     0  0
 13 18  2  0     0  0
 13 30  1  0     0  0
 14 19  2  0     0  0
 14 31  1  0     0  0
 15 20  2  0     0  0
 15 21  1  0     0  0
 15 28  1  0     0  0
 16 20  1  0     0  0
 17 21  2  0     0  0
 18 22  1  0     0  0
 19 23  1  0     0  0
 22 23  2  0     0  0
 24 30  1  0     0  0
 25 31  1  0     0  0
 29 32  1  0     0  0
 32 33  1  0     0  0
 33 34  1  0     0  0
M  END
> <standard_type>
pIC50

> <# Confs.>
25

> <canonical_smiles>
O=C(CC1=CC=CC=C1CC(O)=O)NC2=CC=C(CN3C(COC)=C(Cl)N=C3CCCC)C=C2

> <standard_relation>
=

> <Publication_ID>
nan

> <predicted_activity_value>
5.1487416512809245

> <actual_activity_value>
5.552841968657781

> <Compound>
17

> <standard_units>
nM

> hash
15369469530252257554

$$$$
16
XXILIB    08252103513D 0   0.00000     0.00000

 34 36  0     1  0            999 V2000
    3.3007   -1.4761    4.6752 Cl  0  0  0  0  0  1           0  0  0
   -9.8603    0.3694   -1.7804 O   0  0  0  0  0  2           0  0  0
   -4.8662    0.0949   -2.1788 O   0  0  0  0  0  2           0  0  0
    3.3921   -2.8894    1.0374 O   0  0  0  0  0  2           0  0  0
   -9.8672    1.1069   -3.9357 O   0  0  0  0  0  2           0  0  0
    2.0229    0.0000    1.3517 N   0  0  0  0  0  3           0  0  0
    2.7702    0.7729    3.2963 N   0  0  0  0  0  3           0  0  0
   -4.2221    0.0472    0.0543 N   0  0  0  0  0  3           0  0  0
    2.7814   -0.5972    3.3094 C   0  0  0  0  0  4           0  0  0
    2.3165    1.1181    2.1082 C   0  0  0  0  0  4           0  0  0
    2.3291   -1.1136    2.1092 C   0  0  0  0  0  4           0  0  0
   -2.8151    0.0346   -0.0004 C   0  0  0  0  0  4           0  0  0
   -7.7504    2.2182   -1.2226 C   0  0  0  0  0  4           0  0  0
   -7.0812    1.4702   -0.2285 C   0  0  0  0  0  4           0  0  0
    0.0000    0.0000    0.0000 C   0  0  0  0  0  4           0  0  0
   -2.1086    0.0153    1.2063 C   0  0  0  0  0  4           0  0  0
   -2.1114    0.0406   -1.2090 C   0  0  0  0  0  4           0  0  0
   -8.2280    3.5037   -0.9044 C   0  0  0  0  0  4           0  0  0
   -6.9047    2.0367    1.0478 C   0  0  0  0  0  4           0  0  0
   -0.7119    0.0000    1.2059 C   0  0  0  0  0  4           0  0  0
   -0.7134    0.0252   -1.2060 C   0  0  0  0  0  4           0  0  0
   -8.0385    4.0495    0.3641 C   0  0  0  0  0  4           0  0  0
   -7.3745    3.3165    1.3399 C   0  0  0  0  0  4           0  0  0
   -9.3265    0.9758   -2.6985 C   0  0  0  0  0  4           0  0  0
   -5.1435    0.0667   -0.9817 C   0  0  0  0  0  4           0  0  0
    2.1677   -2.5140    1.6566 C   0  0  0  0  0  4           0  0  0
    3.3490   -4.2282    0.5610 C   0  0  0  0  0  4           0  0  0
    1.4983    0.0000    0.0000 C   0  0  0  0  0  4           0  0  0
    2.1356    2.5200    1.6472 C   0  0  0  0  0  4           0  0  0
   -8.0129    1.6925   -2.6027 C   0  0  0  0  0  4           0  0  0
   -6.5655    0.0745   -0.4625 C   0  0  0  0  0  4           0  0  0
    3.3795    3.0691    0.9550 C   0  0  0  0  0  4           0  0  0
    3.1669    4.5074    0.4926 C   0  0  0  0  0  4           0  0  0
    4.4041    5.0589   -0.1980 C   0  0  0  0  0  4           0  0  0
  1  9  1  0     0  0
  2 24  2  0     0  0
  3 25  2  0     0  0
  4 26  1  0     0  0
  4 27  1  0     0  0
  5 24  1  0     0  0
  6 10  1  0     0  0
  6 11  1  0     0  0
  6 28  1  0     0  0
  7  9  1  0     0  0
  7 10  2  0     0  0
  8 12  1  0     0  0
  8 25  1  0     0  0
  9 11  2  0     0  0
 10 29  1  0     0  0
 11 26  1  0     0  0
 12 16  2  0     0  0
 12 17  1  0     0  0
 13 14  1  0     0  0
 13 18  2  0     0  0
 13 30  1  0     0  0
 14 19  2  0     0  0
 14 31  1  0     0  0
 15 20  2  0     0  0
 15 21  1  0     0  0
 15 28  1  0     0  0
 16 20  1  0     0  0
 17 21  2  0     0  0
 18 22  1  0     0  0
 19 23  1  0     0  0
 22 23  2  0     0  0
 24 30  1  0     0  0
 25 31  1  0     0  0
 29 32  1  0     0  0
 32 33  1  0     0  0
 33 34  1  0     0  0
M  END
> <standard_type>
pIC50

> <# Confs.>
25

> <canonical_smiles>
O=C(CC1=CC=CC=C1CC(O)=O)NC2=CC=C(CN3C(COC)=C(Cl)N=C3CCCC)C=C2

> <standard_relation>
=

> <Publication_ID>
nan

> <predicted_activity_value>
5.1487416512809245

> <actual_activity_value>
5.552841968657781

> <Compound>
17

> <standard_units>
nM

> hash
15369469530252257554

$$$$
16
XXILIB    08252103513D 0   0.00000     0.00000

 34 36  0     1  0            999 V2000
    3.3007   -1.4761    4.6752 Cl  0  0  0  0  0  1           0  0  0
   -9.7652    1.1700   -1.5634 O   0  0  0  0  0  2           0  0  0
   -4.8662    0.0949   -2.1788 O   0  0  0  0  0  2           0  0  0
    3.3921   -2.8894    1.0374 O   0  0  0  0  0  2           0  0  0
   -9.7616    1.7017   -3.7784 O   0  0  0  0  0  2           0  0  0
    2.0229    0.0000    1.3517 N   0  0  0  0  0  3           0  0  0
    2.7702    0.7729    3.2963 N   0  0  0  0  0  3           0  0  0
   -4.2221    0.0472    0.0543 N   0  0  0  0  0  3           0  0  0
    2.7814   -0.5972    3.3094 C   0  0  0  0  0  4           0  0  0
    2.3165    1.1181    2.1082 C   0  0  0  0  0  4           0  0  0
    2.3291   -1.1136    2.1092 C   0  0  0  0  0  4           0  0  0
   -2.8151    0.0346   -0.0004 C   0  0  0  0  0  4           0  0  0
   -8.1076   -1.0855   -2.1517 C   0  0  0  0  0  4           0  0  0
   -7.3600   -1.1073   -0.9534 C   0  0  0  0  0  4           0  0  0
    0.0000    0.0000   -0.0000 C   0  0  0  0  0  4           0  0  0
   -2.1086    0.0153    1.2063 C   0  0  0  0  0  4           0  0  0
   -2.1114    0.0406   -1.2090 C   0  0  0  0  0  4           0  0  0
   -8.7936   -2.2485   -2.5501 C   0  0  0  0  0  4           0  0  0
   -7.3308   -2.2890   -0.1894 C   0  0  0  0  0  4           0  0  0
   -0.7119    0.0000    1.2059 C   0  0  0  0  0  4           0  0  0
   -0.7134    0.0252   -1.2060 C   0  0  0  0  0  4           0  0  0
   -8.7568   -3.4076   -1.7767 C   0  0  0  0  0  4           0  0  0
   -8.0269   -3.4271   -0.5947 C   0  0  0  0  0  4           0  0  0
   -9.3126    1.0274   -2.6904 C   0  0  0  0  0  4           0  0  0
   -5.1435    0.0667   -0.9817 C   0  0  0  0  0  4           0  0  0
    2.1677   -2.5140    1.6566 C   0  0  0  0  0  4           0  0  0
    3.3490   -4.2282    0.5610 C   0  0  0  0  0  4           0  0  0
    1.4983    0.0000    0.0000 C   0  0  0  0  0  4           0  0  0
    2.1356    2.5200    1.6472 C   0  0  0  0  0  4           0  0  0
   -8.1784    0.1143   -3.0491 C   0  0  0  0  0  4           0  0  0
   -6.5655    0.0745   -0.4625 C   0  0  0  0  0  4           0  0  0
    3.3795    3.0691    0.9550 C   0  0  0  0  0  4           0  0  0
    3.1669    4.5074    0.4926 C   0  0  0  0  0  4           0  0  0
    4.4041    5.0589   -0.1980 C   0  0  0  0  0  4           0  0  0
  1  9  1  0     0  0
  2 24  2  0     0  0
  3 25  2  0     0  0
  4 26  1  0     0  0
  4 27  1  0     0  0
  5 24  1  0     0  0
  6 10  1  0     0  0
  6 11  1  0     0  0
  6 28  1  0     0  0
  7  9  1  0     0  0
  7 10  2  0     0  0
  8 12  1  0     0  0
  8 25  1  0     0  0
  9 11  2  0     0  0
 10 29  1  0     0  0
 11 26  1  0     0  0
 12 16  2  0     0  0
 12 17  1  0     0  0
 13 14  1  0     0  0
 13 18  2  0     0  0
 13 30  1  0     0  0
 14 19  2  0     0  0
 14 31  1  0     0  0
 15 20  2  0     0  0
 15 21  1  0     0  0
 15 28  1  0     0  0
 16 20  1  0     0  0
 17 21  2  0     0  0
 18 22  1  0     0  0
 19 23  1  0     0  0
 22 23  2  0     0  0
 24 30  1  0     0  0
 25 31  1  0     0  0
 29 32  1  0     0  0
 32 33  1  0     0  0
 33 34  1  0     0  0
M  END
> <standard_type>
pIC50

> <# Confs.>
25

> <canonical_smiles>
O=C(CC1=CC=CC=C1CC(O)=O)NC2=CC=C(CN3C(COC)=C(Cl)N=C3CCCC)C=C2

> <standard_relation>
=

> <Publication_ID>
nan

> <predicted_activity_value>
5.1487416512809245

> <actual_activity_value>
5.552841968657781

> <Compound>
17

> <standard_units>
nM

> hash
15369469530252257554

$$$$
16
XXILIB    08252103513D 0   0.00000     0.00000

 34 36  0     1  0            999 V2000
    3.3217    1.4761    4.6670 Cl  0  0  0  0  0  1           0  0  0
   -9.7652    1.1700   -1.5634 O   0  0  0  0  0  2           0  0  0
   -4.8662    0.0949   -2.1788 O   0  0  0  0  0  2           0  0  0
    3.3401    2.9158    1.0597 O   0  0  0  0  0  2           0  0  0
   -9.7616    1.7017   -3.7784 O   0  0  0  0  0  2           0  0  0
    2.0229    0.0000    1.3517 N   0  0  0  0  0  3           0  0  0
    2.7831   -0.7729    3.2912 N   0  0  0  0  0  3           0  0  0
   -4.2221    0.0472    0.0543 N   0  0  0  0  0  3           0  0  0
    2.7837    0.5972    3.3086 C   0  0  0  0  0  4           0  0  0
    2.3165   -1.1181    2.1082 C   0  0  0  0  0  4           0  0  0
    2.3079    1.1136    2.1174 C   0  0  0  0  0  4           0  0  0
   -2.8151    0.0346   -0.0004 C   0  0  0  0  0  4           0  0  0
   -8.1076   -1.0855   -2.1517 C   0  0  0  0  0  4           0  0  0
   -7.3600   -1.1073   -0.9534 C   0  0  0  0  0  4           0  0  0
    0.0000    0.0000   -0.0000 C   0  0  0  0  0  4           0  0  0
   -2.1086    0.0153    1.2063 C   0  0  0  0  0  4           0  0  0
   -2.1114    0.0406   -1.2090 C   0  0  0  0  0  4           0  0  0
   -8.7936   -2.2485   -2.5501 C   0  0  0  0  0  4           0  0  0
   -7.3308   -2.2890   -0.1894 C   0  0  0  0  0  4           0  0  0
   -0.7119    0.0000    1.2059 C   0  0  0  0  0  4           0  0  0
   -0.7134    0.0252   -1.2060 C   0  0  0  0  0  4           0  0  0
   -8.7568   -3.4076   -1.7767 C   0  0  0  0  0  4           0  0  0
   -8.0269   -3.4271   -0.5947 C   0  0  0  0  0  4           0  0  0
   -9.3126    1.0274   -2.6904 C   0  0  0  0  0  4           0  0  0
   -5.1435    0.0667   -0.9817 C   0  0  0  0  0  4           0  0  0
    2.1218    2.5140    1.6744 C   0  0  0  0  0  4           0  0  0
    3.2734    4.2569    0.5927 C   0  0  0  0  0  4           0  0  0
    1.4983    0.0000    0.0000 C   0  0  0  0  0  4           0  0  0
    2.1391   -2.5200    1.6459 C   0  0  0  0  0  4           0  0  0
   -8.1784    0.1143   -3.0491 C   0  0  0  0  0  4           0  0  0
   -6.5655    0.0745   -0.4625 C   0  0  0  0  0  4           0  0  0
    3.3856   -3.0666    0.9564 C   0  0  0  0  0  4           0  0  0
    3.1765   -4.5049    0.4925 C   0  0  0  0  0  4           0  0  0
    4.4163   -5.0539   -0.1954 C   0  0  0  0  0  4           0  0  0
  1  9  1  0     0  0
  2 24  2  0     0  0
  3 25  2  0     0  0
  4 26  1  0     0  0
  4 27  1  0     0  0
  5 24  1  0     0  0
  6 10  1  0     0  0
  6 11  1  0     0  0
  6 28  1  0     0  0
  7  9  1  0     0  0
  7 10  2  0     0  0
  8 12  1  0     0  0
  8 25  1  0     0  0
  9 11  2  0     0  0
 10 29  1  0     0  0
 11 26  1  0     0  0
 12 16  2  0     0  0
 12 17  1  0     0  0
 13 14  1  0     0  0
 13 18  2  0     0  0
 13 30  1  0     0  0
 14 19  2  0     0  0
 14 31  1  0     0  0
 15 20  2  0     0  0
 15 21  1  0     0  0
 15 28  1  0     0  0
 16 20  1  0     0  0
 17 21  2  0     0  0
 18 22  1  0     0  0
 19 23  1  0     0  0
 22 23  2  0     0  0
 24 30  1  0     0  0
 25 31  1  0     0  0
 29 32  1  0     0  0
 32 33  1  0     0  0
 33 34  1  0     0  0
M  END
> <standard_type>
pIC50

> <# Confs.>
25

> <canonical_smiles>
O=C(CC1=CC=CC=C1CC(O)=O)NC2=CC=C(CN3C(COC)=C(Cl)N=C3CCCC)C=C2

> <standard_relation>
=

> <Publication_ID>
nan

> <predicted_activity_value>
5.1487416512809245

> <actual_activity_value>
5.552841968657781

> <Compound>
17

> <standard_units>
nM

> hash
15369469530252257554

$$$$
16
XXILIB    08252103513D 0   0.00000     0.00000

 34 36  0     1  0            999 V2000
    3.3217   -1.4761   -4.6670 Cl  0  0  0  0  0  1           0  0  0
   -9.8586   -0.0406   -1.8012 O   0  0  0  0  0  2           0  0  0
   -4.8662    0.0949   -2.1788 O   0  0  0  0  0  2           0  0  0
    3.3401   -2.9158   -1.0597 O   0  0  0  0  0  2           0  0  0
   -9.8567   -0.6204   -4.0041 O   0  0  0  0  0  2           0  0  0
    2.0229    0.0000   -1.3517 N   0  0  0  0  0  3           0  0  0
    2.7831    0.7729   -3.2912 N   0  0  0  0  0  3           0  0  0
   -4.2221    0.0472    0.0543 N   0  0  0  0  0  3           0  0  0
    2.7837   -0.5972   -3.3086 C   0  0  0  0  0  4           0  0  0
    2.3165    1.1181   -2.1082 C   0  0  0  0  0  4           0  0  0
    2.3079   -1.1136   -2.1174 C   0  0  0  0  0  4           0  0  0
   -2.8151    0.0346   -0.0004 C   0  0  0  0  0  4           0  0  0
   -7.8152   -1.9873   -1.3370 C   0  0  0  0  0  4           0  0  0
   -7.1242   -1.3154   -0.3043 C   0  0  0  0  0  4           0  0  0
    0.0000    0.0000    0.0000 C   0  0  0  0  0  4           0  0  0
   -2.1086    0.0153    1.2063 C   0  0  0  0  0  4           0  0  0
   -2.1114    0.0406   -1.2090 C   0  0  0  0  0  4           0  0  0
   -8.2740   -3.2989   -1.1109 C   0  0  0  0  0  4           0  0  0
   -6.9231   -1.9748    0.9228 C   0  0  0  0  0  4           0  0  0
   -0.7119    0.0000    1.2059 C   0  0  0  0  0  4           0  0  0
   -0.7134    0.0252   -1.2060 C   0  0  0  0  0  4           0  0  0
   -8.0697   -3.9330    0.1135 C   0  0  0  0  0  4           0  0  0
   -7.3959   -3.2698    1.1316 C   0  0  0  0  0  4           0  0  0
   -9.3429   -0.6165   -2.7488 C   0  0  0  0  0  4           0  0  0
   -5.1435    0.0667   -0.9817 C   0  0  0  0  0  4           0  0  0
    2.1218   -2.5140   -1.6744 C   0  0  0  0  0  4           0  0  0
    3.2734   -4.2569   -0.5927 C   0  0  0  0  0  4           0  0  0
    1.4983   -0.0000   -0.0000 C   0  0  0  0  0  4           0  0  0
    2.1391    2.5200   -1.6459 C   0  0  0  0  0  4           0  0  0
   -8.0549   -1.3820   -2.6882 C   0  0  0  0  0  4           0  0  0
   -6.5655    0.0745   -0.4625 C   0  0  0  0  0  4           0  0  0
    3.3856    3.0666   -0.9564 C   0  0  0  0  0  4           0  0  0
    3.1765    4.5049   -0.4925 C   0  0  0  0  0  4           0  0  0
    4.4163    5.0539    0.1954 C   0  0  0  0  0  4           0  0  0
  1  9  1  0     0  0
  2 24  2  0     0  0
  3 25  2  0     0  0
  4 26  1  0     0  0
  4 27  1  0     0  0
  5 24  1  0     0  0
  6 10  1  0     0  0
  6 11  1  0     0  0
  6 28  1  0     0  0
  7  9  1  0     0  0
  7 10  2  0     0  0
  8 12  1  0     0  0
  8 25  1  0     0  0
  9 11  2  0     0  0
 10 29  1  0     0  0
 11 26  1  0     0  0
 12 16  2  0     0  0
 12 17  1  0     0  0
 13 14  1  0     0  0
 13 18  2  0     0  0
 13 30  1  0     0  0
 14 19  2  0     0  0
 14 31  1  0     0  0
 15 20  2  0     0  0
 15 21  1  0     0  0
 15 28  1  0     0  0
 16 20  1  0     0  0
 17 21  2  0     0  0
 18 22  1  0     0  0
 19 23  1  0     0  0
 22 23  2  0     0  0
 24 30  1  0     0  0
 25 31  1  0     0  0
 29 32  1  0     0  0
 32 33  1  0     0  0
 33 34  1  0     0  0
M  END
> <standard_type>
pIC50

> <# Confs.>
25

> <canonical_smiles>
O=C(CC1=CC=CC=C1CC(O)=O)NC2=CC=C(CN3C(COC)=C(Cl)N=C3CCCC)C=C2

> <standard_relation>
=

> <Publication_ID>
nan

> <predicted_activity_value>
5.1487416512809245

> <actual_activity_value>
5.552841968657781

> <Compound>
17

> <standard_units>
nM

> hash
15369469530252257554

$$$$
16
XXILIB    08252103513D 0   0.00000     0.00000

 34 36  0     1  0            999 V2000
    3.3007   -1.4761    4.6752 Cl  0  0  0  0  0  1           0  0  0
   -9.8586   -0.0406   -1.8012 O   0  0  0  0  0  2           0  0  0
   -4.8662    0.0949   -2.1788 O   0  0  0  0  0  2           0  0  0
    0.8536   -2.9158    2.0247 O   0  0  0  0  0  2           0  0  0
   -9.8567   -0.6204   -4.0041 O   0  0  0  0  0  2           0  0  0
    2.0229    0.0000    1.3517 N   0  0  0  0  0  3           0  0  0
    2.7702    0.7729    3.2963 N   0  0  0  0  0  3           0  0  0
   -4.2221    0.0472    0.0543 N   0  0  0  0  0  3           0  0  0
    2.7814   -0.5972    3.3094 C   0  0  0  0  0  4           0  0  0
    2.3165    1.1181    2.1082 C   0  0  0  0  0  4           0  0  0
    2.3291   -1.1136    2.1092 C   0  0  0  0  0  4           0  0  0
   -2.8151    0.0346   -0.0004 C   0  0  0  0  0  4           0  0  0
   -7.8152   -1.9873   -1.3370 C   0  0  0  0  0  4           0  0  0
   -7.1242   -1.3154   -0.3043 C   0  0  0  0  0  4           0  0  0
    0.0000    0.0000    0.0000 C   0  0  0  0  0  4           0  0  0
   -2.1086    0.0153    1.2063 C   0  0  0  0  0  4           0  0  0
   -2.1114    0.0406   -1.2090 C   0  0  0  0  0  4           0  0  0
   -8.2740   -3.2989   -1.1109 C   0  0  0  0  0  4           0  0  0
   -6.9231   -1.9748    0.9228 C   0  0  0  0  0  4           0  0  0
   -0.7119    0.0000    1.2059 C   0  0  0  0  0  4           0  0  0
   -0.7134    0.0252   -1.2060 C   0  0  0  0  0  4           0  0  0
   -8.0697   -3.9330    0.1135 C   0  0  0  0  0  4           0  0  0
   -7.3959   -3.2698    1.1316 C   0  0  0  0  0  4           0  0  0
   -9.3429   -0.6165   -2.7488 C   0  0  0  0  0  4           0  0  0
   -5.1435    0.0667   -0.9817 C   0  0  0  0  0  4           0  0  0
    2.1677   -2.5140    1.6566 C   0  0  0  0  0  4           0  0  0
    0.5878   -4.2569    1.6350 C   0  0  0  0  0  4           0  0  0
    1.4983    0.0000    0.0000 C   0  0  0  0  0  4           0  0  0
    2.1356    2.5200    1.6472 C   0  0  0  0  0  4           0  0  0
   -8.0549   -1.3820   -2.6882 C   0  0  0  0  0  4           0  0  0
   -6.5655    0.0745   -0.4625 C   0  0  0  0  0  4           0  0  0
    3.3795    3.0691    0.9550 C   0  0  0  0  0  4           0  0  0
    3.1669    4.5074    0.4926 C   0  0  0  0  0  4           0  0  0
    4.4041    5.0589   -0.1980 C   0  0  0  0  0  4           0  0  0
  1  9  1  0     0  0
  2 24  2  0     0  0
  3 25  2  0     0  0
  4 26  1  0     0  0
  4 27  1  0     0  0
  5 24  1  0     0  0
  6 10  1  0     0  0
  6 11  1  0     0  0
  6 28  1  0     0  0
  7  9  1  0     0  0
  7 10  2  0     0  0
  8 12  1  0     0  0
  8 25  1  0     0  0
  9 11  2  0     0  0
 10 29  1  0     0  0
 11 26  1  0     0  0
 12 16  2  0     0  0
 12 17  1  0     0  0
 13 14  1  0     0  0
 13 18  2  0     0  0
 13 30  1  0     0  0
 14 19  2  0     0  0
 14 31  1  0     0  0
 15 20  2  0     0  0
 15 21  1  0     0  0
 15 28  1  0     0  0
 16 20  1  0     0  0
 17 21  2  0     0  0
 18 22  1  0     0  0
 19 23  1  0     0  0
 22 23  2  0     0  0
 24 30  1  0     0  0
 25 31  1  0     0  0
 29 32  1  0     0  0
 32 33  1  0     0  0
 33 34  1  0     0  0
M  END
> <standard_type>
pIC50

> <# Confs.>
25

> <canonical_smiles>
O=C(CC1=CC=CC=C1CC(O)=O)NC2=CC=C(CN3C(COC)=C(Cl)N=C3CCCC)C=C2

> <standard_relation>
=

> <Publication_ID>
nan

> <predicted_activity_value>
5.1487416512809245

> <actual_activity_value>
5.552841968657781

> <Compound>
17

> <standard_units>
nM

> hash
15369469530252257554

$$$$
16
XXILIB    08252103513D 0   0.00000     0.00000

 34 36  0     1  0            999 V2000
    3.3007    1.4761   -4.6752 Cl  0  0  0  0  0  1           0  0  0
   -9.8586   -0.0406   -1.8012 O   0  0  0  0  0  2           0  0  0
   -4.8662    0.0949   -2.1788 O   0  0  0  0  0  2           0  0  0
    3.3921    2.8894   -1.0374 O   0  0  0  0  0  2           0  0  0
   -9.8567   -0.6204   -4.0041 O   0  0  0  0  0  2           0  0  0
    2.0229    0.0000   -1.3517 N   0  0  0  0  0  3           0  0  0
    2.7702   -0.7729   -3.2963 N   0  0  0  0  0  3           0  0  0
   -4.2221    0.0472    0.0543 N   0  0  0  0  0  3           0  0  0
    2.7814    0.5972   -3.3094 C   0  0  0  0  0  4           0  0  0
    2.3165   -1.1181   -2.1082 C   0  0  0  0  0  4           0  0  0
    2.3291    1.1136   -2.1092 C   0  0  0  0  0  4           0  0  0
   -2.8151    0.0346   -0.0004 C   0  0  0  0  0  4           0  0  0
   -7.8152   -1.9873   -1.3370 C   0  0  0  0  0  4           0  0  0
   -7.1242   -1.3154   -0.3043 C   0  0  0  0  0  4           0  0  0
    0.0000    0.0000    0.0000 C   0  0  0  0  0  4           0  0  0
   -2.1086    0.0153    1.2063 C   0  0  0  0  0  4           0  0  0
   -2.1114    0.0406   -1.2090 C   0  0  0  0  0  4           0  0  0
   -8.2740   -3.2989   -1.1109 C   0  0  0  0  0  4           0  0  0
   -6.9231   -1.9748    0.9228 C   0  0  0  0  0  4           0  0  0
   -0.7119    0.0000    1.2059 C   0  0  0  0  0  4           0  0  0
   -0.7134    0.0252   -1.2060 C   0  0  0  0  0  4           0  0  0
   -8.0697   -3.9330    0.1135 C   0  0  0  0  0  4           0  0  0
   -7.3959   -3.2698    1.1316 C   0  0  0  0  0  4           0  0  0
   -9.3429   -0.6165   -2.7488 C   0  0  0  0  0  4           0  0  0
   -5.1435    0.0667   -0.9817 C   0  0  0  0  0  4           0  0  0
    2.1677    2.5140   -1.6566 C   0  0  0  0  0  4           0  0  0
    3.3490    4.2282   -0.5610 C   0  0  0  0  0  4           0  0  0
    1.4983   -0.0000   -0.0000 C   0  0  0  0  0  4           0  0  0
    2.1356   -2.5200   -1.6472 C   0  0  0  0  0  4           0  0  0
   -8.0549   -1.3820   -2.6882 C   0  0  0  0  0  4           0  0  0
   -6.5655    0.0745   -0.4625 C   0  0  0  0  0  4           0  0  0
    3.3795   -3.0691   -0.9550 C   0  0  0  0  0  4           0  0  0
    3.1669   -4.5074   -0.4926 C   0  0  0  0  0  4           0  0  0
    4.4041   -5.0589    0.1980 C   0  0  0  0  0  4           0  0  0
  1  9  1  0     0  0
  2 24  2  0     0  0
  3 25  2  0     0  0
  4 26  1  0     0  0
  4 27  1  0     0  0
  5 24  1  0     0  0
  6 10  1  0     0  0
  6 11  1  0     0  0
  6 28  1  0     0  0
  7  9  1  0     0  0
  7 10  2  0     0  0
  8 12  1  0     0  0
  8 25  1  0     0  0
  9 11  2  0     0  0
 10 29  1  0     0  0
 11 26  1  0     0  0
 12 16  2  0     0  0
 12 17  1  0     0  0
 13 14  1  0     0  0
 13 18  2  0     0  0
 13 30  1  0     0  0
 14 19  2  0     0  0
 14 31  1  0     0  0
 15 20  2  0     0  0
 15 21  1  0     0  0
 15 28  1  0     0  0
 16 20  1  0     0  0
 17 21  2  0     0  0
 18 22  1  0     0  0
 19 23  1  0     0  0
 22 23  2  0     0  0
 24 30  1  0     0  0
 25 31  1  0     0  0
 29 32  1  0     0  0
 32 33  1  0     0  0
 33 34  1  0     0  0
M  END
> <standard_type>
pIC50

> <# Confs.>
25

> <canonical_smiles>
O=C(CC1=CC=CC=C1CC(O)=O)NC2=CC=C(CN3C(COC)=C(Cl)N=C3CCCC)C=C2

> <standard_relation>
=

> <Publication_ID>
nan

> <predicted_activity_value>
5.1487416512809245

> <actual_activity_value>
5.552841968657781

> <Compound>
17

> <standard_units>
nM

> hash
15369469530252257554

$$$$
16
XXILIB    08252103513D 0   0.00000     0.00000

 34 36  0     1  0            999 V2000
    3.3007   -1.4761    4.6752 Cl  0  0  0  0  0  1           0  0  0
  -10.1234   -0.4873   -1.8163 O   0  0  0  0  0  2           0  0  0
   -4.8662    0.0949   -2.1788 O   0  0  0  0  0  2           0  0  0
    3.3921   -2.8894    1.0374 O   0  0  0  0  0  2           0  0  0
   -9.5237   -0.0576   -3.9715 O   0  0  0  0  0  2           0  0  0
    2.0229    0.0000    1.3517 N   0  0  0  0  0  3           0  0  0
    2.7702    0.7729    3.2963 N   0  0  0  0  0  3           0  0  0
   -4.2221    0.0472    0.0543 N   0  0  0  0  0  3           0  0  0
    2.7814   -0.5972    3.3094 C   0  0  0  0  0  4           0  0  0
    2.3165    1.1181    2.1082 C   0  0  0  0  0  4           0  0  0
    2.3291   -1.1136    2.1092 C   0  0  0  0  0  4           0  0  0
   -2.8151    0.0346   -0.0004 C   0  0  0  0  0  4           0  0  0
   -7.8152   -1.9873   -1.3370 C   0  0  0  0  0  4           0  0  0
   -7.1242   -1.3154   -0.3043 C   0  0  0  0  0  4           0  0  0
    0.0000    0.0000    0.0000 C   0  0  0  0  0  4           0  0  0
   -2.1086    0.0153    1.2063 C   0  0  0  0  0  4           0  0  0
   -2.1114    0.0406   -1.2090 C   0  0  0  0  0  4           0  0  0
   -8.2740   -3.2989   -1.1109 C   0  0  0  0  0  4           0  0  0
   -6.9231   -1.9748    0.9228 C   0  0  0  0  0  4           0  0  0
   -0.7119    0.0000    1.2059 C   0  0  0  0  0  4           0  0  0
   -0.7134    0.0252   -1.2060 C   0  0  0  0  0  4           0  0  0
   -8.0697   -3.9330    0.1135 C   0  0  0  0  0  4           0  0  0
   -7.3959   -3.2698    1.1316 C   0  0  0  0  0  4           0  0  0
   -9.3429   -0.6165   -2.7488 C   0  0  0  0  0  4           0  0  0
   -5.1435    0.0667   -0.9817 C   0  0  0  0  0  4           0  0  0
    2.1677   -2.5140    1.6566 C   0  0  0  0  0  4           0  0  0
    3.3490   -4.2282    0.5610 C   0  0  0  0  0  4           0  0  0
    1.4983    0.0000    0.0000 C   0  0  0  0  0  4           0  0  0
    2.1356    2.5200    1.6472 C   0  0  0  0  0  4           0  0  0
   -8.0549   -1.3820   -2.6882 C   0  0  0  0  0  4           0  0  0
   -6.5655    0.0745   -0.4625 C   0  0  0  0  0  4           0  0  0
    2.5473    3.5378    2.7067 C   0  0  0  0  0  4           0  0  0
    2.3518    4.9664    2.2083 C   0  0  0  0  0  4           0  0  0
    2.7609    5.9843    3.2610 C   0  0  0  0  0  4           0  0  0
  1  9  1  0     0  0
  2 24  2  0     0  0
  3 25  2  0     0  0
  4 26  1  0     0  0
  4 27  1  0     0  0
  5 24  1  0     0  0
  6 10  1  0     0  0
  6 11  1  0     0  0
  6 28  1  0     0  0
  7  9  1  0     0  0
  7 10  2  0     0  0
  8 12  1  0     0  0
  8 25  1  0     0  0
  9 11  2  0     0  0
 10 29  1  0     0  0
 11 26  1  0     0  0
 12 16  2  0     0  0
 12 17  1  0     0  0
 13 14  1  0     0  0
 13 18  2  0     0  0
 13 30  1  0     0  0
 14 19  2  0     0  0
 14 31  1  0     0  0
 15 20  2  0     0  0
 15 21  1  0     0  0
 15 28  1  0     0  0
 16 20  1  0     0  0
 17 21  2  0     0  0
 18 22  1  0     0  0
 19 23  1  0     0  0
 22 23  2  0     0  0
 24 30  1  0     0  0
 25 31  1  0     0  0
 29 32  1  0     0  0
 32 33  1  0     0  0
 33 34  1  0     0  0
M  END
> <standard_type>
pIC50

> <# Confs.>
25

> <canonical_smiles>
O=C(CC1=CC=CC=C1CC(O)=O)NC2=CC=C(CN3C(COC)=C(Cl)N=C3CCCC)C=C2

> <standard_relation>
=

> <Publication_ID>
nan

> <predicted_activity_value>
5.1487416512809245

> <actual_activity_value>
5.552841968657781

> <Compound>
17

> <standard_units>
nM

> hash
15369469530252257554

$$$$
16
XXILIB    08252103513D 0   0.00000     0.00000

 34 36  0     1  0            999 V2000
    3.3217    1.4761    4.6670 Cl  0  0  0  0  0  1           0  0  0
   -9.8586   -0.0406   -1.8012 O   0  0  0  0  0  2           0  0  0
   -4.8662    0.0949   -2.1788 O   0  0  0  0  0  2           0  0  0
    0.8002    2.8894    2.0433 O   0  0  0  0  0  2           0  0  0
   -9.8567   -0.6204   -4.0041 O   0  0  0  0  0  2           0  0  0
    2.0229    0.0000    1.3517 N   0  0  0  0  0  3           0  0  0
    2.7831   -0.7729    3.2912 N   0  0  0  0  0  3           0  0  0
   -4.2221    0.0472    0.0543 N   0  0  0  0  0  3           0  0  0
    2.7837    0.5972    3.3086 C   0  0  0  0  0  4           0  0  0
    2.3165   -1.1181    2.1082 C   0  0  0  0  0  4           0  0  0
    2.3079    1.1136    2.1174 C   0  0  0  0  0  4           0  0  0
   -2.8151    0.0346   -0.0004 C   0  0  0  0  0  4           0  0  0
   -7.8152   -1.9873   -1.3370 C   0  0  0  0  0  4           0  0  0
   -7.1242   -1.3154   -0.3043 C   0  0  0  0  0  4           0  0  0
    0.0000    0.0000    0.0000 C   0  0  0  0  0  4           0  0  0
   -2.1086    0.0153    1.2063 C   0  0  0  0  0  4           0  0  0
   -2.1114    0.0406   -1.2090 C   0  0  0  0  0  4           0  0  0
   -8.2740   -3.2989   -1.1109 C   0  0  0  0  0  4           0  0  0
   -6.9231   -1.9748    0.9228 C   0  0  0  0  0  4           0  0  0
   -0.7119    0.0000    1.2059 C   0  0  0  0  0  4           0  0  0
   -0.7134    0.0252   -1.2060 C   0  0  0  0  0  4           0  0  0
   -8.0697   -3.9330    0.1135 C   0  0  0  0  0  4           0  0  0
   -7.3959   -3.2698    1.1316 C   0  0  0  0  0  4           0  0  0
   -9.3429   -0.6165   -2.7488 C   0  0  0  0  0  4           0  0  0
   -5.1435    0.0667   -0.9817 C   0  0  0  0  0  4           0  0  0
    2.1218    2.5140    1.6744 C   0  0  0  0  0  4           0  0  0
    0.5107    4.2282    1.6626 C   0  0  0  0  0  4           0  0  0
    1.4983    0.0000    0.0000 C   0  0  0  0  0  4           0  0  0
    2.1391   -2.5200    1.6459 C   0  0  0  0  0  4           0  0  0
   -8.0549   -1.3820   -2.6882 C   0  0  0  0  0  4           0  0  0
   -6.5655    0.0745   -0.4625 C   0  0  0  0  0  4           0  0  0
    3.3856   -3.0666    0.9564 C   0  0  0  0  0  4           0  0  0
    3.1765   -4.5049    0.4925 C   0  0  0  0  0  4           0  0  0
    4.4163   -5.0539   -0.1954 C   0  0  0  0  0  4           0  0  0
  1  9  1  0     0  0
  2 24  2  0     0  0
  3 25  2  0     0  0
  4 26  1  0     0  0
  4 27  1  0     0  0
  5 24  1  0     0  0
  6 10  1  0     0  0
  6 11  1  0     0  0
  6 28  1  0     0  0
  7  9  1  0     0  0
  7 10  2  0     0  0
  8 12  1  0     0  0
  8 25  1  0     0  0
  9 11  2  0     0  0
 10 29  1  0     0  0
 11 26  1  0     0  0
 12 16  2  0     0  0
 12 17  1  0     0  0
 13 14  1  0     0  0
 13 18  2  0     0  0
 13 30  1  0     0  0
 14 19  2  0     0  0
 14 31  1  0     0  0
 15 20  2  0     0  0
 15 21  1  0     0  0
 15 28  1  0     0  0
 16 20  1  0     0  0
 17 21  2  0     0  0
 18 22  1  0     0  0
 19 23  1  0     0  0
 22 23  2  0     0  0
 24 30  1  0     0  0
 25 31  1  0     0  0
 29 32  1  0     0  0
 32 33  1  0     0  0
 33 34  1  0     0  0
M  END
> <standard_type>
pIC50

> <# Confs.>
25

> <canonical_smiles>
O=C(CC1=CC=CC=C1CC(O)=O)NC2=CC=C(CN3C(COC)=C(Cl)N=C3CCCC)C=C2

> <standard_relation>
=

> <Publication_ID>
nan

> <predicted_activity_value>
5.1487416512809245

> <actual_activity_value>
5.552841968657781

> <Compound>
17

> <standard_units>
nM

> hash
15369469530252257554

$$$$
16
XXILIB    08252103513D 0   0.00000     0.00000

 34 36  0     1  0            999 V2000
    3.3217    1.4761    4.6670 Cl  0  0  0  0  0  1           0  0  0
  -10.1234   -0.4873   -1.8163 O   0  0  0  0  0  2           0  0  0
   -4.8662    0.0949   -2.1788 O   0  0  0  0  0  2           0  0  0
    3.3401    2.9158    1.0597 O   0  0  0  0  0  2           0  0  0
   -9.5237   -0.0576   -3.9715 O   0  0  0  0  0  2           0  0  0
    2.0229    0.0000    1.3517 N   0  0  0  0  0  3           0  0  0
    2.7831   -0.7729    3.2912 N   0  0  0  0  0  3           0  0  0
   -4.2221    0.0472    0.0543 N   0  0  0  0  0  3           0  0  0
    2.7837    0.5972    3.3086 C   0  0  0  0  0  4           0  0  0
    2.3165   -1.1181    2.1082 C   0  0  0  0  0  4           0  0  0
    2.3079    1.1136    2.1174 C   0  0  0  0  0  4           0  0  0
   -2.8151    0.0346   -0.0004 C   0  0  0  0  0  4           0  0  0
   -7.8152   -1.9873   -1.3370 C   0  0  0  0  0  4           0  0  0
   -7.1242   -1.3154   -0.3043 C   0  0  0  0  0  4           0  0  0
    0.0000    0.0000    0.0000 C   0  0  0  0  0  4           0  0  0
   -2.1086    0.0153    1.2063 C   0  0  0  0  0  4           0  0  0
   -2.1114    0.0406   -1.2090 C   0  0  0  0  0  4           0  0  0
   -8.2740   -3.2989   -1.1109 C   0  0  0  0  0  4           0  0  0
   -6.9231   -1.9748    0.9228 C   0  0  0  0  0  4           0  0  0
   -0.7119    0.0000    1.2059 C   0  0  0  0  0  4           0  0  0
   -0.7134    0.0252   -1.2060 C   0  0  0  0  0  4           0  0  0
   -8.0697   -3.9330    0.1135 C   0  0  0  0  0  4           0  0  0
   -7.3959   -3.2698    1.1316 C   0  0  0  0  0  4           0  0  0
   -9.3429   -0.6165   -2.7488 C   0  0  0  0  0  4           0  0  0
   -5.1435    0.0667   -0.9817 C   0  0  0  0  0  4           0  0  0
    2.1218    2.5140    1.6744 C   0  0  0  0  0  4           0  0  0
    3.2734    4.2569    0.5927 C   0  0  0  0  0  4           0  0  0
    1.4983    0.0000    0.0000 C   0  0  0  0  0  4           0  0  0
    2.1391   -2.5200    1.6459 C   0  0  0  0  0  4           0  0  0
   -8.0549   -1.3820   -2.6882 C   0  0  0  0  0  4           0  0  0
   -6.5655    0.0745   -0.4625 C   0  0  0  0  0  4           0  0  0
    2.5499   -3.5378    2.7058 C   0  0  0  0  0  4           0  0  0
    2.3580   -4.9664    2.2059 C   0  0  0  0  0  4           0  0  0
    2.7662   -5.9843    3.2590 C   0  0  0  0  0  4           0  0  0
  1  9  1  0     0  0
  2 24  2  0     0  0
  3 25  2  0     0  0
  4 26  1  0     0  0
  4 27  1  0     0  0
  5 24  1  0     0  0
  6 10  1  0     0  0
  6 11  1  0     0  0
  6 28  1  0     0  0
  7  9  1  0     0  0
  7 10  2  0     0  0
  8 12  1  0     0  0
  8 25  1  0     0  0
  9 11  2  0     0  0
 10 29  1  0     0  0
 11 26  1  0     0  0
 12 16  2  0     0  0
 12 17  1  0     0  0
 13 14  1  0     0  0
 13 18  2  0     0  0
 13 30  1  0     0  0
 14 19  2  0     0  0
 14 31  1  0     0  0
 15 20  2  0     0  0
 15 21  1  0     0  0
 15 28  1  0     0  0
 16 20  1  0     0  0
 17 21  2  0     0  0
 18 22  1  0     0  0
 19 23  1  0     0  0
 22 23  2  0     0  0
 24 30  1  0     0  0
 25 31  1  0     0  0
 29 32  1  0     0  0
 32 33  1  0     0  0
 33 34  1  0     0  0
M  END
> <standard_type>
pIC50

> <# Confs.>
25

> <canonical_smiles>
O=C(CC1=CC=CC=C1CC(O)=O)NC2=CC=C(CN3C(COC)=C(Cl)N=C3CCCC)C=C2

> <standard_relation>
=

> <Publication_ID>
nan

> <predicted_activity_value>
5.1487416512809245

> <actual_activity_value>
5.552841968657781

> <Compound>
17

> <standard_units>
nM

> hash
15369469530252257554

$$$$
16
XXILIB    08252103513D 0   0.00000     0.00000

 34 36  0     1  0            999 V2000
    3.3007   -1.4761    4.6752 Cl  0  0  0  0  0  1           0  0  0
   -9.4773    2.0907   -0.7886 O   0  0  0  0  0  2           0  0  0
   -4.8662    0.0949   -2.1788 O   0  0  0  0  0  2           0  0  0
    3.3921   -2.8894    1.0374 O   0  0  0  0  0  2           0  0  0
   -9.2816    3.5904   -2.4921 O   0  0  0  0  0  2           0  0  0
    2.0229    0.0000    1.3517 N   0  0  0  0  0  3           0  0  0
    2.7702    0.7729    3.2963 N   0  0  0  0  0  3           0  0  0
   -4.2221    0.0472    0.0543 N   0  0  0  0  0  3           0  0  0
    2.7814   -0.5972    3.3094 C   0  0  0  0  0  4           0  0  0
    2.3165    1.1181    2.1082 C   0  0  0  0  0  4           0  0  0
    2.3291   -1.1136    2.1092 C   0  0  0  0  0  4           0  0  0
   -2.8151    0.0346   -0.0004 C   0  0  0  0  0  4           0  0  0
   -8.2042    0.1283   -2.4345 C   0  0  0  0  0  4           0  0  0
   -7.5269   -0.5818   -1.4185 C   0  0  0  0  0  4           0  0  0
    0.0000    0.0000   -0.0000 C   0  0  0  0  0  4           0  0  0
   -2.1086    0.0153    1.2063 C   0  0  0  0  0  4           0  0  0
   -2.1114    0.0406   -1.2090 C   0  0  0  0  0  4           0  0  0
   -9.0598   -0.5739   -3.3045 C   0  0  0  0  0  4           0  0  0
   -7.7350   -1.9689   -1.3013 C   0  0  0  0  0  4           0  0  0
   -0.7119   -0.0000    1.2059 C   0  0  0  0  0  4           0  0  0
   -0.7134    0.0252   -1.2060 C   0  0  0  0  0  4           0  0  0
   -9.2570   -1.9471   -3.1687 C   0  0  0  0  0  4           0  0  0
   -8.5959   -2.6445   -2.1652 C   0  0  0  0  0  4           0  0  0
   -9.0046    2.4183   -1.8678 C   0  0  0  0  0  4           0  0  0
   -5.1435    0.0667   -0.9817 C   0  0  0  0  0  4           0  0  0
    2.1677   -2.5140    1.6566 C   0  0  0  0  0  4           0  0  0
    3.3490   -4.2282    0.5610 C   0  0  0  0  0  4           0  0  0
    1.4983    0.0000    0.0000 C   0  0  0  0  0  4           0  0  0
    2.1356    2.5200    1.6472 C   0  0  0  0  0  4           0  0  0
   -8.0279    1.6008   -2.6591 C   0  0  0  0  0  4           0  0  0
   -6.5655    0.0745   -0.4625 C   0  0  0  0  0  4           0  0  0
    3.3795    3.0691    0.9550 C   0  0  0  0  0  4           0  0  0
    3.1669    4.5074    0.4926 C   0  0  0  0  0  4           0  0  0
    4.4041    5.0589   -0.1980 C   0  0  0  0  0  4           0  0  0
  1  9  1  0     0  0
  2 24  2  0     0  0
  3 25  2  0     0  0
  4 26  1  0     0  0
  4 27  1  0     0  0
  5 24  1  0     0  0
  6 10  1  0     0  0
  6 11  1  0     0  0
  6 28  1  0     0  0
  7  9  1  0     0  0
  7 10  2  0     0  0
  8 12  1  0     0  0
  8 25  1  0     0  0
  9 11  2  0     0  0
 10 29  1  0     0  0
 11 26  1  0     0  0
 12 16  2  0     0  0
 12 17  1  0     0  0
 13 14  1  0     0  0
 13 18  2  0     0  0
 13 30  1  0     0  0
 14 19  2  0     0  0
 14 31  1  0     0  0
 15 20  2  0     0  0
 15 21  1  0     0  0
 15 28  1  0     0  0
 16 20  1  0     0  0
 17 21  2  0     0  0
 18 22  1  0     0  0
 19 23  1  0     0  0
 22 23  2  0     0  0
 24 30  1  0     0  0
 25 31  1  0     0  0
 29 32  1  0     0  0
 32 33  1  0     0  0
 33 34  1  0     0  0
M  END
> <standard_type>
pIC50

> <# Confs.>
25

> <canonical_smiles>
O=C(CC1=CC=CC=C1CC(O)=O)NC2=CC=C(CN3C(COC)=C(Cl)N=C3CCCC)C=C2

> <standard_relation>
=

> <Publication_ID>
nan

> <predicted_activity_value>
5.1487416512809245

> <actual_activity_value>
5.552841968657781

> <Compound>
17

> <standard_units>
nM

> hash
15369469530252257554

$$$$
16
XXILIB    08252103513D 0   0.00000     0.00000

 34 36  0     1  0            999 V2000
    3.3007   -1.4761    4.6752 Cl  0  0  0  0  0  1           0  0  0
  -10.1096    0.8251   -1.7714 O   0  0  0  0  0  2           0  0  0
   -4.8662    0.0949   -2.1788 O   0  0  0  0  0  2           0  0  0
    3.3921   -2.8894    1.0374 O   0  0  0  0  0  2           0  0  0
   -9.5524    0.5333   -3.9608 O   0  0  0  0  0  2           0  0  0
    2.0229    0.0000    1.3517 N   0  0  0  0  0  3           0  0  0
    2.7702    0.7729    3.2963 N   0  0  0  0  0  3           0  0  0
   -4.2221    0.0472    0.0543 N   0  0  0  0  0  3           0  0  0
    2.7814   -0.5972    3.3094 C   0  0  0  0  0  4           0  0  0
    2.3165    1.1181    2.1082 C   0  0  0  0  0  4           0  0  0
    2.3291   -1.1136    2.1092 C   0  0  0  0  0  4           0  0  0
   -2.8151    0.0346   -0.0004 C   0  0  0  0  0  4           0  0  0
   -7.7504    2.2182   -1.2226 C   0  0  0  0  0  4           0  0  0
   -7.0812    1.4702   -0.2285 C   0  0  0  0  0  4           0  0  0
    0.0000    0.0000    0.0000 C   0  0  0  0  0  4           0  0  0
   -2.1086    0.0153    1.2063 C   0  0  0  0  0  4           0  0  0
   -2.1114    0.0406   -1.2090 C   0  0  0  0  0  4           0  0  0
   -8.2280    3.5037   -0.9044 C   0  0  0  0  0  4           0  0  0
   -6.9047    2.0367    1.0478 C   0  0  0  0  0  4           0  0  0
   -0.7119    0.0000    1.2059 C   0  0  0  0  0  4           0  0  0
   -0.7134    0.0252   -1.2060 C   0  0  0  0  0  4           0  0  0
   -8.0385    4.0495    0.3641 C   0  0  0  0  0  4           0  0  0
   -7.3745    3.3165    1.3399 C   0  0  0  0  0  4           0  0  0
   -9.3265    0.9758   -2.6985 C   0  0  0  0  0  4           0  0  0
   -5.1435    0.0667   -0.9817 C   0  0  0  0  0  4           0  0  0
    2.1677   -2.5140    1.6566 C   0  0  0  0  0  4           0  0  0
    3.3490   -4.2282    0.5610 C   0  0  0  0  0  4           0  0  0
    1.4983    0.0000    0.0000 C   0  0  0  0  0  4           0  0  0
    2.1356    2.5200    1.6472 C   0  0  0  0  0  4           0  0  0
   -8.0129    1.6925   -2.6027 C   0  0  0  0  0  4           0  0  0
   -6.5655    0.0745   -0.4625 C   0  0  0  0  0  4           0  0  0
    2.5473    3.5378    2.7067 C   0  0  0  0  0  4           0  0  0
    2.3518    4.9664    2.2083 C   0  0  0  0  0  4           0  0  0
    2.7609    5.9843    3.2610 C   0  0  0  0  0  4           0  0  0
  1  9  1  0     0  0
  2 24  2  0     0  0
  3 25  2  0     0  0
  4 26  1  0     0  0
  4 27  1  0     0  0
  5 24  1  0     0  0
  6 10  1  0     0  0
  6 11  1  0     0  0
  6 28  1  0     0  0
  7  9  1  0     0  0
  7 10  2  0     0  0
  8 12  1  0     0  0
  8 25  1  0     0  0
  9 11  2  0     0  0
 10 29  1  0     0  0
 11 26  1  0     0  0
 12 16  2  0     0  0
 12 17  1  0     0  0
 13 14  1  0     0  0
 13 18  2  0     0  0
 13 30  1  0     0  0
 14 19  2  0     0  0
 14 31  1  0     0  0
 15 20  2  0     0  0
 15 21  1  0     0  0
 15 28  1  0     0  0
 16 20  1  0     0  0
 17 21  2  0     0  0
 18 22  1  0     0  0
 19 23  1  0     0  0
 22 23  2  0     0  0
 24 30  1  0     0  0
 25 31  1  0     0  0
 29 32  1  0     0  0
 32 33  1  0     0  0
 33 34  1  0     0  0
M  END
> <standard_type>
pIC50

> <# Confs.>
25

> <canonical_smiles>
O=C(CC1=CC=CC=C1CC(O)=O)NC2=CC=C(CN3C(COC)=C(Cl)N=C3CCCC)C=C2

> <standard_relation>
=

> <Publication_ID>
nan

> <predicted_activity_value>
5.1487416512809245

> <actual_activity_value>
5.552841968657781

> <Compound>
17

> <standard_units>
nM

> hash
15369469530252257554

$$$$
16
XXILIB    08252103513D 0   0.00000     0.00000

 34 36  0     1  0            999 V2000
    3.3217    1.4761    4.6670 Cl  0  0  0  0  0  1           0  0  0
  -10.1096    0.8251   -1.7714 O   0  0  0  0  0  2           0  0  0
   -4.8662    0.0949   -2.1788 O   0  0  0  0  0  2           0  0  0
    3.3401    2.9158    1.0597 O   0  0  0  0  0  2           0  0  0
   -9.5524    0.5333   -3.9608 O   0  0  0  0  0  2           0  0  0
    2.0229    0.0000    1.3517 N   0  0  0  0  0  3           0  0  0
    2.7831   -0.7729    3.2912 N   0  0  0  0  0  3           0  0  0
   -4.2221    0.0472    0.0543 N   0  0  0  0  0  3           0  0  0
    2.7837    0.5972    3.3086 C   0  0  0  0  0  4           0  0  0
    2.3165   -1.1181    2.1082 C   0  0  0  0  0  4           0  0  0
    2.3079    1.1136    2.1174 C   0  0  0  0  0  4           0  0  0
   -2.8151    0.0346   -0.0004 C   0  0  0  0  0  4           0  0  0
   -7.7504    2.2182   -1.2226 C   0  0  0  0  0  4           0  0  0
   -7.0812    1.4702   -0.2285 C   0  0  0  0  0  4           0  0  0
    0.0000    0.0000    0.0000 C   0  0  0  0  0  4           0  0  0
   -2.1086    0.0153    1.2063 C   0  0  0  0  0  4           0  0  0
   -2.1114    0.0406   -1.2090 C   0  0  0  0  0  4           0  0  0
   -8.2280    3.5037   -0.9044 C   0  0  0  0  0  4           0  0  0
   -6.9047    2.0367    1.0478 C   0  0  0  0  0  4           0  0  0
   -0.7119    0.0000    1.2059 C   0  0  0  0  0  4           0  0  0
   -0.7134    0.0252   -1.2060 C   0  0  0  0  0  4           0  0  0
   -8.0385    4.0495    0.3641 C   0  0  0  0  0  4           0  0  0
   -7.3745    3.3165    1.3399 C   0  0  0  0  0  4           0  0  0
   -9.3265    0.9758   -2.6985 C   0  0  0  0  0  4           0  0  0
   -5.1435    0.0667   -0.9817 C   0  0  0  0  0  4           0  0  0
    2.1218    2.5140    1.6744 C   0  0  0  0  0  4           0  0  0
    3.2734    4.2569    0.5927 C   0  0  0  0  0  4           0  0  0
    1.4983    0.0000    0.0000 C   0  0  0  0  0  4           0  0  0
    2.1391   -2.5200    1.6459 C   0  0  0  0  0  4           0  0  0
   -8.0129    1.6925   -2.6027 C   0  0  0  0  0  4           0  0  0
   -6.5655    0.0745   -0.4625 C   0  0  0  0  0  4           0  0  0
    2.5499   -3.5378    2.7058 C   0  0  0  0  0  4           0  0  0
    2.3580   -4.9664    2.2059 C   0  0  0  0  0  4           0  0  0
    2.7662   -5.9843    3.2590 C   0  0  0  0  0  4           0  0  0
  1  9  1  0     0  0
  2 24  2  0     0  0
  3 25  2  0     0  0
  4 26  1  0     0  0
  4 27  1  0     0  0
  5 24  1  0     0  0
  6 10  1  0     0  0
  6 11  1  0     0  0
  6 28  1  0     0  0
  7  9  1  0     0  0
  7 10  2  0     0  0
  8 12  1  0     0  0
  8 25  1  0     0  0
  9 11  2  0     0  0
 10 29  1  0     0  0
 11 26  1  0     0  0
 12 16  2  0     0  0
 12 17  1  0     0  0
 13 14  1  0     0  0
 13 18  2  0     0  0
 13 30  1  0     0  0
 14 19  2  0     0  0
 14 31  1  0     0  0
 15 20  2  0     0  0
 15 21  1  0     0  0
 15 28  1  0     0  0
 16 20  1  0     0  0
 17 21  2  0     0  0
 18 22  1  0     0  0
 19 23  1  0     0  0
 22 23  2  0     0  0
 24 30  1  0     0  0
 25 31  1  0     0  0
 29 32  1  0     0  0
 32 33  1  0     0  0
 33 34  1  0     0  0
M  END
> <standard_type>
pIC50

> <# Confs.>
25

> <canonical_smiles>
O=C(CC1=CC=CC=C1CC(O)=O)NC2=CC=C(CN3C(COC)=C(Cl)N=C3CCCC)C=C2

> <standard_relation>
=

> <Publication_ID>
nan

> <predicted_activity_value>
5.1487416512809245

> <actual_activity_value>
5.552841968657781

> <Compound>
17

> <standard_units>
nM

> hash
15369469530252257554

$$$$
16
XXILIB    08252103513D 0   0.00000     0.00000

 34 36  0     1  0            999 V2000
    3.3217    1.4761    4.6670 Cl  0  0  0  0  0  1           0  0  0
   -9.4773    2.0907   -0.7886 O   0  0  0  0  0  2           0  0  0
   -4.8662    0.0949   -2.1788 O   0  0  0  0  0  2           0  0  0
    3.3401    2.9158    1.0597 O   0  0  0  0  0  2           0  0  0
   -9.2816    3.5904   -2.4921 O   0  0  0  0  0  2           0  0  0
    2.0229    0.0000    1.3517 N   0  0  0  0  0  3           0  0  0
    2.7831   -0.7729    3.2912 N   0  0  0  0  0  3           0  0  0
   -4.2221    0.0472    0.0543 N   0  0  0  0  0  3           0  0  0
    2.7837    0.5972    3.3086 C   0  0  0  0  0  4           0  0  0
    2.3165   -1.1181    2.1082 C   0  0  0  0  0  4           0  0  0
    2.3079    1.1136    2.1174 C   0  0  0  0  0  4           0  0  0
   -2.8151    0.0346   -0.0004 C   0  0  0  0  0  4           0  0  0
   -8.2042    0.1283   -2.4345 C   0  0  0  0  0  4           0  0  0
   -7.5269   -0.5818   -1.4185 C   0  0  0  0  0  4           0  0  0
    0.0000    0.0000   -0.0000 C   0  0  0  0  0  4           0  0  0
   -2.1086    0.0153    1.2063 C   0  0  0  0  0  4           0  0  0
   -2.1114    0.0406   -1.2090 C   0  0  0  0  0  4           0  0  0
   -9.0598   -0.5739   -3.3045 C   0  0  0  0  0  4           0  0  0
   -7.7350   -1.9689   -1.3013 C   0  0  0  0  0  4           0  0  0
   -0.7119   -0.0000    1.2059 C   0  0  0  0  0  4           0  0  0
   -0.7134    0.0252   -1.2060 C   0  0  0  0  0  4           0  0  0
   -9.2570   -1.9471   -3.1687 C   0  0  0  0  0  4           0  0  0
   -8.5959   -2.6445   -2.1652 C   0  0  0  0  0  4           0  0  0
   -9.0046    2.4183   -1.8678 C   0  0  0  0  0  4           0  0  0
   -5.1435    0.0667   -0.9817 C   0  0  0  0  0  4           0  0  0
    2.1218    2.5140    1.6744 C   0  0  0  0  0  4           0  0  0
    3.2734    4.2569    0.5927 C   0  0  0  0  0  4           0  0  0
    1.4983    0.0000    0.0000 C   0  0  0  0  0  4           0  0  0
    2.1391   -2.5200    1.6459 C   0  0  0  0  0  4           0  0  0
   -8.0279    1.6008   -2.6591 C   0  0  0  0  0  4           0  0  0
   -6.5655    0.0745   -0.4625 C   0  0  0  0  0  4           0  0  0
    3.3856   -3.0666    0.9564 C   0  0  0  0  0  4           0  0  0
    3.1765   -4.5049    0.4925 C   0  0  0  0  0  4           0  0  0
    4.4163   -5.0539   -0.1954 C   0  0  0  0  0  4           0  0  0
  1  9  1  0     0  0
  2 24  2  0     0  0
  3 25  2  0     0  0
  4 26  1  0     0  0
  4 27  1  0     0  0
  5 24  1  0     0  0
  6 10  1  0     0  0
  6 11  1  0     0  0
  6 28  1  0     0  0
  7  9  1  0     0  0
  7 10  2  0     0  0
  8 12  1  0     0  0
  8 25  1  0     0  0
  9 11  2  0     0  0
 10 29  1  0     0  0
 11 26  1  0     0  0
 12 16  2  0     0  0
 12 17  1  0     0  0
 13 14  1  0     0  0
 13 18  2  0     0  0
 13 30  1  0     0  0
 14 19  2  0     0  0
 14 31  1  0     0  0
 15 20  2  0     0  0
 15 21  1  0     0  0
 15 28  1  0     0  0
 16 20  1  0     0  0
 17 21  2  0     0  0
 18 22  1  0     0  0
 19 23  1  0     0  0
 22 23  2  0     0  0
 24 30  1  0     0  0
 25 31  1  0     0  0
 29 32  1  0     0  0
 32 33  1  0     0  0
 33 34  1  0     0  0
M  END
> <standard_type>
pIC50

> <# Confs.>
25

> <canonical_smiles>
O=C(CC1=CC=CC=C1CC(O)=O)NC2=CC=C(CN3C(COC)=C(Cl)N=C3CCCC)C=C2

> <standard_relation>
=

> <Publication_ID>
nan

> <predicted_activity_value>
5.1487416512809245

> <actual_activity_value>
5.552841968657781

> <Compound>
17

> <standard_units>
nM

> hash
15369469530252257554

$$$$
16
XXILIB    08252103513D 0   0.00000     0.00000

 34 36  0     1  0            999 V2000
    3.3007   -1.4761    4.6752 Cl  0  0  0  0  0  1           0  0  0
  -10.1234   -0.4873   -1.8163 O   0  0  0  0  0  2           0  0  0
   -4.8662    0.0949   -2.1788 O   0  0  0  0  0  2           0  0  0
    3.3921   -2.8894    1.0374 O   0  0  0  0  0  2           0  0  0
   -9.5237   -0.0576   -3.9715 O   0  0  0  0  0  2           0  0  0
    2.0229    0.0000    1.3517 N   0  0  0  0  0  3           0  0  0
    2.7702    0.7729    3.2963 N   0  0  0  0  0  3           0  0  0
   -4.2221    0.0472    0.0543 N   0  0  0  0  0  3           0  0  0
    2.7814   -0.5972    3.3094 C   0  0  0  0  0  4           0  0  0
    2.3165    1.1181    2.1082 C   0  0  0  0  0  4           0  0  0
    2.3291   -1.1136    2.1092 C   0  0  0  0  0  4           0  0  0
   -2.8151    0.0346   -0.0004 C   0  0  0  0  0  4           0  0  0
   -7.8152   -1.9873   -1.3370 C   0  0  0  0  0  4           0  0  0
   -7.1242   -1.3154   -0.3043 C   0  0  0  0  0  4           0  0  0
    0.0000    0.0000    0.0000 C   0  0  0  0  0  4           0  0  0
   -2.1086    0.0153    1.2063 C   0  0  0  0  0  4           0  0  0
   -2.1114    0.0406   -1.2090 C   0  0  0  0  0  4           0  0  0
   -8.2740   -3.2989   -1.1109 C   0  0  0  0  0  4           0  0  0
   -6.9231   -1.9748    0.9228 C   0  0  0  0  0  4           0  0  0
   -0.7119    0.0000    1.2059 C   0  0  0  0  0  4           0  0  0
   -0.7134    0.0252   -1.2060 C   0  0  0  0  0  4           0  0  0
   -8.0697   -3.9330    0.1135 C   0  0  0  0  0  4           0  0  0
   -7.3959   -3.2698    1.1316 C   0  0  0  0  0  4           0  0  0
   -9.3429   -0.6165   -2.7488 C   0  0  0  0  0  4           0  0  0
   -5.1435    0.0667   -0.9817 C   0  0  0  0  0  4           0  0  0
    2.1677   -2.5140    1.6566 C   0  0  0  0  0  4           0  0  0
    3.3490   -4.2282    0.5610 C   0  0  0  0  0  4           0  0  0
    1.4983    0.0000    0.0000 C   0  0  0  0  0  4           0  0  0
    2.1356    2.5200    1.6472 C   0  0  0  0  0  4           0  0  0
   -8.0549   -1.3820   -2.6882 C   0  0  0  0  0  4           0  0  0
   -6.5655    0.0745   -0.4625 C   0  0  0  0  0  4           0  0  0
    3.3795    3.0691    0.9550 C   0  0  0  0  0  4           0  0  0
    4.5843    3.0591    1.8910 C   0  0  0  0  0  4           0  0  0
    5.8265    3.6055    1.2053 C   0  0  0  0  0  4           0  0  0
  1  9  1  0     0  0
  2 24  2  0     0  0
  3 25  2  0     0  0
  4 26  1  0     0  0
  4 27  1  0     0  0
  5 24  1  0     0  0
  6 10  1  0     0  0
  6 11  1  0     0  0
  6 28  1  0     0  0
  7  9  1  0     0  0
  7 10  2  0     0  0
  8 12  1  0     0  0
  8 25  1  0     0  0
  9 11  2  0     0  0
 10 29  1  0     0  0
 11 26  1  0     0  0
 12 16  2  0     0  0
 12 17  1  0     0  0
 13 14  1  0     0  0
 13 18  2  0     0  0
 13 30  1  0     0  0
 14 19  2  0     0  0
 14 31  1  0     0  0
 15 20  2  0     0  0
 15 21  1  0     0  0
 15 28  1  0     0  0
 16 20  1  0     0  0
 17 21  2  0     0  0
 18 22  1  0     0  0
 19 23  1  0     0  0
 22 23  2  0     0  0
 24 30  1  0     0  0
 25 31  1  0     0  0
 29 32  1  0     0  0
 32 33  1  0     0  0
 33 34  1  0     0  0
M  END
> <standard_type>
pIC50

> <# Confs.>
25

> <canonical_smiles>
O=C(CC1=CC=CC=C1CC(O)=O)NC2=CC=C(CN3C(COC)=C(Cl)N=C3CCCC)C=C2

> <standard_relation>
=

> <Publication_ID>
nan

> <predicted_activity_value>
5.1487416512809245

> <actual_activity_value>
5.552841968657781

> <Compound>
17

> <standard_units>
nM

> hash
15369469530252257554

$$$$
16
XXILIB    08252103513D 0   0.00000     0.00000

 34 36  0     1  0            999 V2000
    3.3007   -1.4761    4.6752 Cl  0  0  0  0  0  1           0  0  0
   -6.2609   -2.6987   -3.6303 O   0  0  0  0  0  2           0  0  0
   -4.8662    0.0949   -2.1788 O   0  0  0  0  0  2           0  0  0
    3.3921   -2.8894    1.0374 O   0  0  0  0  0  2           0  0  0
   -6.8223   -0.7061   -4.5809 O   0  0  0  0  0  2           0  0  0
    2.0229    0.0000    1.3517 N   0  0  0  0  0  3           0  0  0
    2.7702    0.7729    3.2963 N   0  0  0  0  0  3           0  0  0
   -4.2221    0.0472    0.0543 N   0  0  0  0  0  3           0  0  0
    2.7814   -0.5972    3.3094 C   0  0  0  0  0  4           0  0  0
    2.3165    1.1181    2.1082 C   0  0  0  0  0  4           0  0  0
    2.3291   -1.1136    2.1092 C   0  0  0  0  0  4           0  0  0
   -2.8151    0.0346   -0.0004 C   0  0  0  0  0  4           0  0  0
   -7.8152   -1.9873   -1.3370 C   0  0  0  0  0  4           0  0  0
   -7.1242   -1.3154   -0.3043 C   0  0  0  0  0  4           0  0  0
    0.0000    0.0000    0.0000 C   0  0  0  0  0  4           0  0  0
   -2.1086    0.0153    1.2063 C   0  0  0  0  0  4           0  0  0
   -2.1114    0.0406   -1.2090 C   0  0  0  0  0  4           0  0  0
   -8.2740   -3.2989   -1.1109 C   0  0  0  0  0  4           0  0  0
   -6.9231   -1.9748    0.9228 C   0  0  0  0  0  4           0  0  0
   -0.7119    0.0000    1.2059 C   0  0  0  0  0  4           0  0  0
   -0.7134    0.0252   -1.2060 C   0  0  0  0  0  4           0  0  0
   -8.0697   -3.9330    0.1135 C   0  0  0  0  0  4           0  0  0
   -7.3959   -3.2698    1.1316 C   0  0  0  0  0  4           0  0  0
   -6.9489   -1.6879   -3.6535 C   0  0  0  0  0  4           0  0  0
   -5.1435    0.0667   -0.9817 C   0  0  0  0  0  4           0  0  0
    2.1677   -2.5140    1.6566 C   0  0  0  0  0  4           0  0  0
    3.3490   -4.2282    0.5610 C   0  0  0  0  0  4           0  0  0
    1.4983    0.0000    0.0000 C   0  0  0  0  0  4           0  0  0
    2.1356    2.5200    1.6472 C   0  0  0  0  0  4           0  0  0
   -8.0549   -1.3820   -2.6882 C   0  0  0  0  0  4           0  0  0
   -6.5655    0.0745   -0.4625 C   0  0  0  0  0  4           0  0  0
    3.3795    3.0691    0.9550 C   0  0  0  0  0  4           0  0  0
    3.1669    4.5074    0.4926 C   0  0  0  0  0  4           0  0  0
    4.4041    5.0589   -0.1980 C   0  0  0  0  0  4           0  0  0
  1  9  1  0     0  0
  2 24  2  0     0  0
  3 25  2  0     0  0
  4 26  1  0     0  0
  4 27  1  0     0  0
  5 24  1  0     0  0
  6 10  1  0     0  0
  6 11  1  0     0  0
  6 28  1  0     0  0
  7  9  1  0     0  0
  7 10  2  0     0  0
  8 12  1  0     0  0
  8 25  1  0     0  0
  9 11  2  0     0  0
 10 29  1  0     0  0
 11 26  1  0     0  0
 12 16  2  0     0  0
 12 17  1  0     0  0
 13 14  1  0     0  0
 13 18  2  0     0  0
 13 30  1  0     0  0
 14 19  2  0     0  0
 14 31  1  0     0  0
 15 20  2  0     0  0
 15 21  1  0     0  0
 15 28  1  0     0  0
 16 20  1  0     0  0
 17 21  2  0     0  0
 18 22  1  0     0  0
 19 23  1  0     0  0
 22 23  2  0     0  0
 24 30  1  0     0  0
 25 31  1  0     0  0
 29 32  1  0     0  0
 32 33  1  0     0  0
 33 34  1  0     0  0
M  END
> <standard_type>
pIC50

> <# Confs.>
25

> <canonical_smiles>
O=C(CC1=CC=CC=C1CC(O)=O)NC2=CC=C(CN3C(COC)=C(Cl)N=C3CCCC)C=C2

> <standard_relation>
=

> <Publication_ID>
nan

> <predicted_activity_value>
5.1487416512809245

> <actual_activity_value>
5.552841968657781

> <Compound>
17

> <standard_units>
nM

> hash
15369469530252257554

$$$$
16
XXILIB    08252103513D 0   0.00000     0.00000

 34 36  0     1  0            999 V2000
    3.3007    1.4761   -4.6752 Cl  0  0  0  0  0  1           0  0  0
   -9.8603    0.3694   -1.7804 O   0  0  0  0  0  2           0  0  0
   -4.8662    0.0949   -2.1788 O   0  0  0  0  0  2           0  0  0
    3.3921    2.8894   -1.0374 O   0  0  0  0  0  2           0  0  0
   -9.8672    1.1069   -3.9357 O   0  0  0  0  0  2           0  0  0
    2.0229    0.0000   -1.3517 N   0  0  0  0  0  3           0  0  0
    2.7702   -0.7729   -3.2963 N   0  0  0  0  0  3           0  0  0
   -4.2221    0.0472    0.0543 N   0  0  0  0  0  3           0  0  0
    2.7814    0.5972   -3.3094 C   0  0  0  0  0  4           0  0  0
    2.3165   -1.1181   -2.1082 C   0  0  0  0  0  4           0  0  0
    2.3291    1.1136   -2.1092 C   0  0  0  0  0  4           0  0  0
   -2.8151    0.0346   -0.0004 C   0  0  0  0  0  4           0  0  0
   -7.7504    2.2182   -1.2226 C   0  0  0  0  0  4           0  0  0
   -7.0812    1.4702   -0.2285 C   0  0  0  0  0  4           0  0  0
    0.0000    0.0000    0.0000 C   0  0  0  0  0  4           0  0  0
   -2.1086    0.0153    1.2063 C   0  0  0  0  0  4           0  0  0
   -2.1114    0.0406   -1.2090 C   0  0  0  0  0  4           0  0  0
   -8.2280    3.5037   -0.9044 C   0  0  0  0  0  4           0  0  0
   -6.9047    2.0367    1.0478 C   0  0  0  0  0  4           0  0  0
   -0.7119    0.0000    1.2059 C   0  0  0  0  0  4           0  0  0
   -0.7134    0.0252   -1.2060 C   0  0  0  0  0  4           0  0  0
   -8.0385    4.0495    0.3641 C   0  0  0  0  0  4           0  0  0
   -7.3745    3.3165    1.3399 C   0  0  0  0  0  4           0  0  0
   -9.3265    0.9758   -2.6985 C   0  0  0  0  0  4           0  0  0
   -5.1435    0.0667   -0.9817 C   0  0  0  0  0  4           0  0  0
    2.1677    2.5140   -1.6566 C   0  0  0  0  0  4           0  0  0
    3.3490    4.2282   -0.5610 C   0  0  0  0  0  4           0  0  0
    1.4983   -0.0000   -0.0000 C   0  0  0  0  0  4           0  0  0
    2.1356   -2.5200   -1.6472 C   0  0  0  0  0  4           0  0  0
   -8.0129    1.6925   -2.6027 C   0  0  0  0  0  4           0  0  0
   -6.5655    0.0745   -0.4625 C   0  0  0  0  0  4           0  0  0
    3.3795   -3.0691   -0.9550 C   0  0  0  0  0  4           0  0  0
    3.1669   -4.5074   -0.4926 C   0  0  0  0  0  4           0  0  0
    4.4041   -5.0589    0.1980 C   0  0  0  0  0  4           0  0  0
  1  9  1  0     0  0
  2 24  2  0     0  0
  3 25  2  0     0  0
  4 26  1  0     0  0
  4 27  1  0     0  0
  5 24  1  0     0  0
  6 10  1  0     0  0
  6 11  1  0     0  0
  6 28  1  0     0  0
  7  9  1  0     0  0
  7 10  2  0     0  0
  8 12  1  0     0  0
  8 25  1  0     0  0
  9 11  2  0     0  0
 10 29  1  0     0  0
 11 26  1  0     0  0
 12 16  2  0     0  0
 12 17  1  0     0  0
 13 14  1  0     0  0
 13 18  2  0     0  0
 13 30  1  0     0  0
 14 19  2  0     0  0
 14 31  1  0     0  0
 15 20  2  0     0  0
 15 21  1  0     0  0
 15 28  1  0     0  0
 16 20  1  0     0  0
 17 21  2  0     0  0
 18 22  1  0     0  0
 19 23  1  0     0  0
 22 23  2  0     0  0
 24 30  1  0     0  0
 25 31  1  0     0  0
 29 32  1  0     0  0
 32 33  1  0     0  0
 33 34  1  0     0  0
M  END
> <standard_type>
pIC50

> <# Confs.>
25

> <canonical_smiles>
O=C(CC1=CC=CC=C1CC(O)=O)NC2=CC=C(CN3C(COC)=C(Cl)N=C3CCCC)C=C2

> <standard_relation>
=

> <Publication_ID>
nan

> <predicted_activity_value>
5.1487416512809245

> <actual_activity_value>
5.552841968657781

> <Compound>
17

> <standard_units>
nM

> hash
15369469530252257554

$$$$
16
XXILIB    08252103513D 0   0.00000     0.00000

 34 36  0     1  0            999 V2000
    3.3217   -1.4761   -4.6670 Cl  0  0  0  0  0  1           0  0  0
   -9.8603    0.3694   -1.7804 O   0  0  0  0  0  2           0  0  0
   -4.8662    0.0949   -2.1788 O   0  0  0  0  0  2           0  0  0
    3.3401   -2.9158   -1.0597 O   0  0  0  0  0  2           0  0  0
   -9.8672    1.1069   -3.9357 O   0  0  0  0  0  2           0  0  0
    2.0229    0.0000   -1.3517 N   0  0  0  0  0  3           0  0  0
    2.7831    0.7729   -3.2912 N   0  0  0  0  0  3           0  0  0
   -4.2221    0.0472    0.0543 N   0  0  0  0  0  3           0  0  0
    2.7837   -0.5972   -3.3086 C   0  0  0  0  0  4           0  0  0
    2.3165    1.1181   -2.1082 C   0  0  0  0  0  4           0  0  0
    2.3079   -1.1136   -2.1174 C   0  0  0  0  0  4           0  0  0
   -2.8151    0.0346   -0.0004 C   0  0  0  0  0  4           0  0  0
   -7.7504    2.2182   -1.2226 C   0  0  0  0  0  4           0  0  0
   -7.0812    1.4702   -0.2285 C   0  0  0  0  0  4           0  0  0
    0.0000    0.0000    0.0000 C   0  0  0  0  0  4           0  0  0
   -2.1086    0.0153    1.2063 C   0  0  0  0  0  4           0  0  0
   -2.1114    0.0406   -1.2090 C   0  0  0  0  0  4           0  0  0
   -8.2280    3.5037   -0.9044 C   0  0  0  0  0  4           0  0  0
   -6.9047    2.0367    1.0478 C   0  0  0  0  0  4           0  0  0
   -0.7119    0.0000    1.2059 C   0  0  0  0  0  4           0  0  0
   -0.7134    0.0252   -1.2060 C   0  0  0  0  0  4           0  0  0
   -8.0385    4.0495    0.3641 C   0  0  0  0  0  4           0  0  0
   -7.3745    3.3165    1.3399 C   0  0  0  0  0  4           0  0  0
   -9.3265    0.9758   -2.6985 C   0  0  0  0  0  4           0  0  0
   -5.1435    0.0667   -0.9817 C   0  0  0  0  0  4           0  0  0
    2.1218   -2.5140   -1.6744 C   0  0  0  0  0  4           0  0  0
    3.2734   -4.2569   -0.5927 C   0  0  0  0  0  4           0  0  0
    1.4983   -0.0000   -0.0000 C   0  0  0  0  0  4           0  0  0
    2.1391    2.5200   -1.6459 C   0  0  0  0  0  4           0  0  0
   -8.0129    1.6925   -2.6027 C   0  0  0  0  0  4           0  0  0
   -6.5655    0.0745   -0.4625 C   0  0  0  0  0  4           0  0  0
    3.3856    3.0666   -0.9564 C   0  0  0  0  0  4           0  0  0
    3.1765    4.5049   -0.4925 C   0  0  0  0  0  4           0  0  0
    4.4163    5.0539    0.1954 C   0  0  0  0  0  4           0  0  0
  1  9  1  0     0  0
  2 24  2  0     0  0
  3 25  2  0     0  0
  4 26  1  0     0  0
  4 27  1  0     0  0
  5 24  1  0     0  0
  6 10  1  0     0  0
  6 11  1  0     0  0
  6 28  1  0     0  0
  7  9  1  0     0  0
  7 10  2  0     0  0
  8 12  1  0     0  0
  8 25  1  0     0  0
  9 11  2  0     0  0
 10 29  1  0     0  0
 11 26  1  0     0  0
 12 16  2  0     0  0
 12 17  1  0     0  0
 13 14  1  0     0  0
 13 18  2  0     0  0
 13 30  1  0     0  0
 14 19  2  0     0  0
 14 31  1  0     0  0
 15 20  2  0     0  0
 15 21  1  0     0  0
 15 28  1  0     0  0
 16 20  1  0     0  0
 17 21  2  0     0  0
 18 22  1  0     0  0
 19 23  1  0     0  0
 22 23  2  0     0  0
 24 30  1  0     0  0
 25 31  1  0     0  0
 29 32  1  0     0  0
 32 33  1  0     0  0
 33 34  1  0     0  0
M  END
> <standard_type>
pIC50

> <# Confs.>
25

> <canonical_smiles>
O=C(CC1=CC=CC=C1CC(O)=O)NC2=CC=C(CN3C(COC)=C(Cl)N=C3CCCC)C=C2

> <standard_relation>
=

> <Publication_ID>
nan

> <predicted_activity_value>
5.1487416512809245

> <actual_activity_value>
5.552841968657781

> <Compound>
17

> <standard_units>
nM

> hash
15369469530252257554

$$$$
16
XXILIB    08252103513D 0   0.00000     0.00000

 34 36  0     1  0            999 V2000
    3.3217    1.4761    4.6670 Cl  0  0  0  0  0  1           0  0  0
   -6.2609   -2.6987   -3.6303 O   0  0  0  0  0  2           0  0  0
   -4.8662    0.0949   -2.1788 O   0  0  0  0  0  2           0  0  0
    3.3401    2.9158    1.0597 O   0  0  0  0  0  2           0  0  0
   -6.8223   -0.7061   -4.5809 O   0  0  0  0  0  2           0  0  0
    2.0229    0.0000    1.3517 N   0  0  0  0  0  3           0  0  0
    2.7831   -0.7729    3.2912 N   0  0  0  0  0  3           0  0  0
   -4.2221    0.0472    0.0543 N   0  0  0  0  0  3           0  0  0
    2.7837    0.5972    3.3086 C   0  0  0  0  0  4           0  0  0
    2.3165   -1.1181    2.1082 C   0  0  0  0  0  4           0  0  0
    2.3079    1.1136    2.1174 C   0  0  0  0  0  4           0  0  0
   -2.8151    0.0346   -0.0004 C   0  0  0  0  0  4           0  0  0
   -7.8152   -1.9873   -1.3370 C   0  0  0  0  0  4           0  0  0
   -7.1242   -1.3154   -0.3043 C   0  0  0  0  0  4           0  0  0
    0.0000    0.0000    0.0000 C   0  0  0  0  0  4           0  0  0
   -2.1086    0.0153    1.2063 C   0  0  0  0  0  4           0  0  0
   -2.1114    0.0406   -1.2090 C   0  0  0  0  0  4           0  0  0
   -8.2740   -3.2989   -1.1109 C   0  0  0  0  0  4           0  0  0
   -6.9231   -1.9748    0.9228 C   0  0  0  0  0  4           0  0  0
   -0.7119    0.0000    1.2059 C   0  0  0  0  0  4           0  0  0
   -0.7134    0.0252   -1.2060 C   0  0  0  0  0  4           0  0  0
   -8.0697   -3.9330    0.1135 C   0  0  0  0  0  4           0  0  0
   -7.3959   -3.2698    1.1316 C   0  0  0  0  0  4           0  0  0
   -6.9489   -1.6879   -3.6535 C   0  0  0  0  0  4           0  0  0
   -5.1435    0.0667   -0.9817 C   0  0  0  0  0  4           0  0  0
    2.1218    2.5140    1.6744 C   0  0  0  0  0  4           0  0  0
    3.2734    4.2569    0.5927 C   0  0  0  0  0  4           0  0  0
    1.4983    0.0000    0.0000 C   0  0  0  0  0  4           0  0  0
    2.1391   -2.5200    1.6459 C   0  0  0  0  0  4           0  0  0
   -8.0549   -1.3820   -2.6882 C   0  0  0  0  0  4           0  0  0
   -6.5655    0.0745   -0.4625 C   0  0  0  0  0  4           0  0  0
    3.3856   -3.0666    0.9564 C   0  0  0  0  0  4           0  0  0
    3.1765   -4.5049    0.4925 C   0  0  0  0  0  4           0  0  0
    4.4163   -5.0539   -0.1954 C   0  0  0  0  0  4           0  0  0
  1  9  1  0     0  0
  2 24  2  0     0  0
  3 25  2  0     0  0
  4 26  1  0     0  0
  4 27  1  0     0  0
  5 24  1  0     0  0
  6 10  1  0     0  0
  6 11  1  0     0  0
  6 28  1  0     0  0
  7  9  1  0     0  0
  7 10  2  0     0  0
  8 12  1  0     0  0
  8 25  1  0     0  0
  9 11  2  0     0  0
 10 29  1  0     0  0
 11 26  1  0     0  0
 12 16  2  0     0  0
 12 17  1  0     0  0
 13 14  1  0     0  0
 13 18  2  0     0  0
 13 30  1  0     0  0
 14 19  2  0     0  0
 14 31  1  0     0  0
 15 20  2  0     0  0
 15 21  1  0     0  0
 15 28  1  0     0  0
 16 20  1  0     0  0
 17 21  2  0     0  0
 18 22  1  0     0  0
 19 23  1  0     0  0
 22 23  2  0     0  0
 24 30  1  0     0  0
 25 31  1  0     0  0
 29 32  1  0     0  0
 32 33  1  0     0  0
 33 34  1  0     0  0
M  END
> <standard_type>
pIC50

> <# Confs.>
25

> <canonical_smiles>
O=C(CC1=CC=CC=C1CC(O)=O)NC2=CC=C(CN3C(COC)=C(Cl)N=C3CCCC)C=C2

> <standard_relation>
=

> <Publication_ID>
nan

> <predicted_activity_value>
5.1487416512809245

> <actual_activity_value>
5.552841968657781

> <Compound>
17

> <standard_units>
nM

> hash
15369469530252257554

$$$$
16
XXILIB    08252103513D 0   0.00000     0.00000

 34 36  0     1  0            999 V2000
    3.3007   -1.4761    4.6752 Cl  0  0  0  0  0  1           0  0  0
   -9.7652    1.1700   -1.5634 O   0  0  0  0  0  2           0  0  0
   -4.8662    0.0949   -2.1788 O   0  0  0  0  0  2           0  0  0
    0.8536   -2.9158    2.0247 O   0  0  0  0  0  2           0  0  0
   -9.7616    1.7017   -3.7784 O   0  0  0  0  0  2           0  0  0
    2.0229    0.0000    1.3517 N   0  0  0  0  0  3           0  0  0
    2.7702    0.7729    3.2963 N   0  0  0  0  0  3           0  0  0
   -4.2221    0.0472    0.0543 N   0  0  0  0  0  3           0  0  0
    2.7814   -0.5972    3.3094 C   0  0  0  0  0  4           0  0  0
    2.3165    1.1181    2.1082 C   0  0  0  0  0  4           0  0  0
    2.3291   -1.1136    2.1092 C   0  0  0  0  0  4           0  0  0
   -2.8151    0.0346   -0.0004 C   0  0  0  0  0  4           0  0  0
   -8.1076   -1.0855   -2.1517 C   0  0  0  0  0  4           0  0  0
   -7.3600   -1.1073   -0.9534 C   0  0  0  0  0  4           0  0  0
    0.0000    0.0000   -0.0000 C   0  0  0  0  0  4           0  0  0
   -2.1086    0.0153    1.2063 C   0  0  0  0  0  4           0  0  0
   -2.1114    0.0406   -1.2090 C   0  0  0  0  0  4           0  0  0
   -8.7936   -2.2485   -2.5501 C   0  0  0  0  0  4           0  0  0
   -7.3308   -2.2890   -0.1894 C   0  0  0  0  0  4           0  0  0
   -0.7119    0.0000    1.2059 C   0  0  0  0  0  4           0  0  0
   -0.7134    0.0252   -1.2060 C   0  0  0  0  0  4           0  0  0
   -8.7568   -3.4076   -1.7767 C   0  0  0  0  0  4           0  0  0
   -8.0269   -3.4271   -0.5947 C   0  0  0  0  0  4           0  0  0
   -9.3126    1.0274   -2.6904 C   0  0  0  0  0  4           0  0  0
   -5.1435    0.0667   -0.9817 C   0  0  0  0  0  4           0  0  0
    2.1677   -2.5140    1.6566 C   0  0  0  0  0  4           0  0  0
    0.5878   -4.2569    1.6350 C   0  0  0  0  0  4           0  0  0
    1.4983    0.0000    0.0000 C   0  0  0  0  0  4           0  0  0
    2.1356    2.5200    1.6472 C   0  0  0  0  0  4           0  0  0
   -8.1784    0.1143   -3.0491 C   0  0  0  0  0  4           0  0  0
   -6.5655    0.0745   -0.4625 C   0  0  0  0  0  4           0  0  0
    3.3795    3.0691    0.9550 C   0  0  0  0  0  4           0  0  0
    3.1669    4.5074    0.4926 C   0  0  0  0  0  4           0  0  0
    4.4041    5.0589   -0.1980 C   0  0  0  0  0  4           0  0  0
  1  9  1  0     0  0
  2 24  2  0     0  0
  3 25  2  0     0  0
  4 26  1  0     0  0
  4 27  1  0     0  0
  5 24  1  0     0  0
  6 10  1  0     0  0
  6 11  1  0     0  0
  6 28  1  0     0  0
  7  9  1  0     0  0
  7 10  2  0     0  0
  8 12  1  0     0  0
  8 25  1  0     0  0
  9 11  2  0     0  0
 10 29  1  0     0  0
 11 26  1  0     0  0
 12 16  2  0     0  0
 12 17  1  0     0  0
 13 14  1  0     0  0
 13 18  2  0     0  0
 13 30  1  0     0  0
 14 19  2  0     0  0
 14 31  1  0     0  0
 15 20  2  0     0  0
 15 21  1  0     0  0
 15 28  1  0     0  0
 16 20  1  0     0  0
 17 21  2  0     0  0
 18 22  1  0     0  0
 19 23  1  0     0  0
 22 23  2  0     0  0
 24 30  1  0     0  0
 25 31  1  0     0  0
 29 32  1  0     0  0
 32 33  1  0     0  0
 33 34  1  0     0  0
M  END
> <standard_type>
pIC50

> <# Confs.>
25

> <canonical_smiles>
O=C(CC1=CC=CC=C1CC(O)=O)NC2=CC=C(CN3C(COC)=C(Cl)N=C3CCCC)C=C2

> <standard_relation>
=

> <Publication_ID>
nan

> <predicted_activity_value>
5.1487416512809245

> <actual_activity_value>
5.552841968657781

> <Compound>
17

> <standard_units>
nM

> hash
15369469530252257554

$$$$
16
XXILIB    08252103513D 0   0.00000     0.00000

 34 36  0     1  0            999 V2000
    3.3007   -1.4761    4.6752 Cl  0  0  0  0  0  1           0  0  0
  -10.1096    0.8251   -1.7714 O   0  0  0  0  0  2           0  0  0
   -4.8662    0.0949   -2.1788 O   0  0  0  0  0  2           0  0  0
    0.8536   -2.9158    2.0247 O   0  0  0  0  0  2           0  0  0
   -9.5524    0.5333   -3.9608 O   0  0  0  0  0  2           0  0  0
    2.0229    0.0000    1.3517 N   0  0  0  0  0  3           0  0  0
    2.7702    0.7729    3.2963 N   0  0  0  0  0  3           0  0  0
   -4.2221    0.0472    0.0543 N   0  0  0  0  0  3           0  0  0
    2.7814   -0.5972    3.3094 C   0  0  0  0  0  4           0  0  0
    2.3165    1.1181    2.1082 C   0  0  0  0  0  4           0  0  0
    2.3291   -1.1136    2.1092 C   0  0  0  0  0  4           0  0  0
   -2.8151    0.0346   -0.0004 C   0  0  0  0  0  4           0  0  0
   -7.7504    2.2182   -1.2226 C   0  0  0  0  0  4           0  0  0
   -7.0812    1.4702   -0.2285 C   0  0  0  0  0  4           0  0  0
    0.0000    0.0000    0.0000 C   0  0  0  0  0  4           0  0  0
   -2.1086    0.0153    1.2063 C   0  0  0  0  0  4           0  0  0
   -2.1114    0.0406   -1.2090 C   0  0  0  0  0  4           0  0  0
   -8.2280    3.5037   -0.9044 C   0  0  0  0  0  4           0  0  0
   -6.9047    2.0367    1.0478 C   0  0  0  0  0  4           0  0  0
   -0.7119    0.0000    1.2059 C   0  0  0  0  0  4           0  0  0
   -0.7134    0.0252   -1.2060 C   0  0  0  0  0  4           0  0  0
   -8.0385    4.0495    0.3641 C   0  0  0  0  0  4           0  0  0
   -7.3745    3.3165    1.3399 C   0  0  0  0  0  4           0  0  0
   -9.3265    0.9758   -2.6985 C   0  0  0  0  0  4           0  0  0
   -5.1435    0.0667   -0.9817 C   0  0  0  0  0  4           0  0  0
    2.1677   -2.5140    1.6566 C   0  0  0  0  0  4           0  0  0
    0.5878   -4.2569    1.6350 C   0  0  0  0  0  4           0  0  0
    1.4983    0.0000    0.0000 C   0  0  0  0  0  4           0  0  0
    2.1356    2.5200    1.6472 C   0  0  0  0  0  4           0  0  0
   -8.0129    1.6925   -2.6027 C   0  0  0  0  0  4           0  0  0
   -6.5655    0.0745   -0.4625 C   0  0  0  0  0  4           0  0  0
    3.3795    3.0691    0.9550 C   0  0  0  0  0  4           0  0  0
    3.1669    4.5074    0.4926 C   0  0  0  0  0  4           0  0  0
    4.4041    5.0589   -0.1980 C   0  0  0  0  0  4           0  0  0
  1  9  1  0     0  0
  2 24  2  0     0  0
  3 25  2  0     0  0
  4 26  1  0     0  0
  4 27  1  0     0  0
  5 24  1  0     0  0
  6 10  1  0     0  0
  6 11  1  0     0  0
  6 28  1  0     0  0
  7  9  1  0     0  0
  7 10  2  0     0  0
  8 12  1  0     0  0
  8 25  1  0     0  0
  9 11  2  0     0  0
 10 29  1  0     0  0
 11 26  1  0     0  0
 12 16  2  0     0  0
 12 17  1  0     0  0
 13 14  1  0     0  0
 13 18  2  0     0  0
 13 30  1  0     0  0
 14 19  2  0     0  0
 14 31  1  0     0  0
 15 20  2  0     0  0
 15 21  1  0     0  0
 15 28  1  0     0  0
 16 20  1  0     0  0
 17 21  2  0     0  0
 18 22  1  0     0  0
 19 23  1  0     0  0
 22 23  2  0     0  0
 24 30  1  0     0  0
 25 31  1  0     0  0
 29 32  1  0     0  0
 32 33  1  0     0  0
 33 34  1  0     0  0
M  END
> <standard_type>
pIC50

> <# Confs.>
25

> <canonical_smiles>
O=C(CC1=CC=CC=C1CC(O)=O)NC2=CC=C(CN3C(COC)=C(Cl)N=C3CCCC)C=C2

> <standard_relation>
=

> <Publication_ID>
nan

> <predicted_activity_value>
5.1487416512809245

> <actual_activity_value>
5.552841968657781

> <Compound>
17

> <standard_units>
nM

> hash
15369469530252257554

$$$$
16
XXILIB    08252103513D 0   0.00000     0.00000

 34 36  0     1  0            999 V2000
    3.3217   -1.4761   -4.6670 Cl  0  0  0  0  0  1           0  0  0
   -9.7652    1.1700   -1.5634 O   0  0  0  0  0  2           0  0  0
   -4.8662    0.0949   -2.1788 O   0  0  0  0  0  2           0  0  0
    3.3401   -2.9158   -1.0597 O   0  0  0  0  0  2           0  0  0
   -9.7616    1.7017   -3.7784 O   0  0  0  0  0  2           0  0  0
    2.0229    0.0000   -1.3517 N   0  0  0  0  0  3           0  0  0
    2.7831    0.7729   -3.2912 N   0  0  0  0  0  3           0  0  0
   -4.2221    0.0472    0.0543 N   0  0  0  0  0  3           0  0  0
    2.7837   -0.5972   -3.3086 C   0  0  0  0  0  4           0  0  0
    2.3165    1.1181   -2.1082 C   0  0  0  0  0  4           0  0  0
    2.3079   -1.1136   -2.1174 C   0  0  0  0  0  4           0  0  0
   -2.8151    0.0346   -0.0004 C   0  0  0  0  0  4           0  0  0
   -8.1076   -1.0855   -2.1517 C   0  0  0  0  0  4           0  0  0
   -7.3600   -1.1073   -0.9534 C   0  0  0  0  0  4           0  0  0
    0.0000    0.0000   -0.0000 C   0  0  0  0  0  4           0  0  0
   -2.1086    0.0153    1.2063 C   0  0  0  0  0  4           0  0  0
   -2.1114    0.0406   -1.2090 C   0  0  0  0  0  4           0  0  0
   -8.7936   -2.2485   -2.5501 C   0  0  0  0  0  4           0  0  0
   -7.3308   -2.2890   -0.1894 C   0  0  0  0  0  4           0  0  0
   -0.7119    0.0000    1.2059 C   0  0  0  0  0  4           0  0  0
   -0.7134    0.0252   -1.2060 C   0  0  0  0  0  4           0  0  0
   -8.7568   -3.4076   -1.7767 C   0  0  0  0  0  4           0  0  0
   -8.0269   -3.4271   -0.5947 C   0  0  0  0  0  4           0  0  0
   -9.3126    1.0274   -2.6904 C   0  0  0  0  0  4           0  0  0
   -5.1435    0.0667   -0.9817 C   0  0  0  0  0  4           0  0  0
    2.1218   -2.5140   -1.6744 C   0  0  0  0  0  4           0  0  0
    3.2734   -4.2569   -0.5927 C   0  0  0  0  0  4           0  0  0
    1.4983   -0.0000   -0.0000 C   0  0  0  0  0  4           0  0  0
    2.1391    2.5200   -1.6459 C   0  0  0  0  0  4           0  0  0
   -8.1784    0.1143   -3.0491 C   0  0  0  0  0  4           0  0  0
   -6.5655    0.0745   -0.4625 C   0  0  0  0  0  4           0  0  0
    3.3856    3.0666   -0.9564 C   0  0  0  0  0  4           0  0  0
    3.1765    4.5049   -0.4925 C   0  0  0  0  0  4           0  0  0
    4.4163    5.0539    0.1954 C   0  0  0  0  0  4           0  0  0
  1  9  1  0     0  0
  2 24  2  0     0  0
  3 25  2  0     0  0
  4 26  1  0     0  0
  4 27  1  0     0  0
  5 24  1  0     0  0
  6 10  1  0     0  0
  6 11  1  0     0  0
  6 28  1  0     0  0
  7  9  1  0     0  0
  7 10  2  0     0  0
  8 12  1  0     0  0
  8 25  1  0     0  0
  9 11  2  0     0  0
 10 29  1  0     0  0
 11 26  1  0     0  0
 12 16  2  0     0  0
 12 17  1  0     0  0
 13 14  1  0     0  0
 13 18  2  0     0  0
 13 30  1  0     0  0
 14 19  2  0     0  0
 14 31  1  0     0  0
 15 20  2  0     0  0
 15 21  1  0     0  0
 15 28  1  0     0  0
 16 20  1  0     0  0
 17 21  2  0     0  0
 18 22  1  0     0  0
 19 23  1  0     0  0
 22 23  2  0     0  0
 24 30  1  0     0  0
 25 31  1  0     0  0
 29 32  1  0     0  0
 32 33  1  0     0  0
 33 34  1  0     0  0
M  END
> <standard_type>
pIC50

> <# Confs.>
25

> <canonical_smiles>
O=C(CC1=CC=CC=C1CC(O)=O)NC2=CC=C(CN3C(COC)=C(Cl)N=C3CCCC)C=C2

> <standard_relation>
=

> <Publication_ID>
nan

> <predicted_activity_value>
5.1487416512809245

> <actual_activity_value>
5.552841968657781

> <Compound>
17

> <standard_units>
nM

> hash
15369469530252257554

$$$$
16
XXILIB    08252103513D 0   0.00000     0.00000

 34 36  0     1  0            999 V2000
    3.3007    1.4761   -4.6752 Cl  0  0  0  0  0  1           0  0  0
   -9.7652    1.1700   -1.5634 O   0  0  0  0  0  2           0  0  0
   -4.8662    0.0949   -2.1788 O   0  0  0  0  0  2           0  0  0
    3.3921    2.8894   -1.0374 O   0  0  0  0  0  2           0  0  0
   -9.7616    1.7017   -3.7784 O   0  0  0  0  0  2           0  0  0
    2.0229    0.0000   -1.3517 N   0  0  0  0  0  3           0  0  0
    2.7702   -0.7729   -3.2963 N   0  0  0  0  0  3           0  0  0
   -4.2221    0.0472    0.0543 N   0  0  0  0  0  3           0  0  0
    2.7814    0.5972   -3.3094 C   0  0  0  0  0  4           0  0  0
    2.3165   -1.1181   -2.1082 C   0  0  0  0  0  4           0  0  0
    2.3291    1.1136   -2.1092 C   0  0  0  0  0  4           0  0  0
   -2.8151    0.0346   -0.0004 C   0  0  0  0  0  4           0  0  0
   -8.1076   -1.0855   -2.1517 C   0  0  0  0  0  4           0  0  0
   -7.3600   -1.1073   -0.9534 C   0  0  0  0  0  4           0  0  0
    0.0000    0.0000   -0.0000 C   0  0  0  0  0  4           0  0  0
   -2.1086    0.0153    1.2063 C   0  0  0  0  0  4           0  0  0
   -2.1114    0.0406   -1.2090 C   0  0  0  0  0  4           0  0  0
   -8.7936   -2.2485   -2.5501 C   0  0  0  0  0  4           0  0  0
   -7.3308   -2.2890   -0.1894 C   0  0  0  0  0  4           0  0  0
   -0.7119    0.0000    1.2059 C   0  0  0  0  0  4           0  0  0
   -0.7134    0.0252   -1.2060 C   0  0  0  0  0  4           0  0  0
   -8.7568   -3.4076   -1.7767 C   0  0  0  0  0  4           0  0  0
   -8.0269   -3.4271   -0.5947 C   0  0  0  0  0  4           0  0  0
   -9.3126    1.0274   -2.6904 C   0  0  0  0  0  4           0  0  0
   -5.1435    0.0667   -0.9817 C   0  0  0  0  0  4           0  0  0
    2.1677    2.5140   -1.6566 C   0  0  0  0  0  4           0  0  0
    3.3490    4.2282   -0.5610 C   0  0  0  0  0  4           0  0  0
    1.4983   -0.0000   -0.0000 C   0  0  0  0  0  4           0  0  0
    2.1356   -2.5200   -1.6472 C   0  0  0  0  0  4           0  0  0
   -8.1784    0.1143   -3.0491 C   0  0  0  0  0  4           0  0  0
   -6.5655    0.0745   -0.4625 C   0  0  0  0  0  4           0  0  0
    3.3795   -3.0691   -0.9550 C   0  0  0  0  0  4           0  0  0
    3.1669   -4.5074   -0.4926 C   0  0  0  0  0  4           0  0  0
    4.4041   -5.0589    0.1980 C   0  0  0  0  0  4           0  0  0
  1  9  1  0     0  0
  2 24  2  0     0  0
  3 25  2  0     0  0
  4 26  1  0     0  0
  4 27  1  0     0  0
  5 24  1  0     0  0
  6 10  1  0     0  0
  6 11  1  0     0  0
  6 28  1  0     0  0
  7  9  1  0     0  0
  7 10  2  0     0  0
  8 12  1  0     0  0
  8 25  1  0     0  0
  9 11  2  0     0  0
 10 29  1  0     0  0
 11 26  1  0     0  0
 12 16  2  0     0  0
 12 17  1  0     0  0
 13 14  1  0     0  0
 13 18  2  0     0  0
 13 30  1  0     0  0
 14 19  2  0     0  0
 14 31  1  0     0  0
 15 20  2  0     0  0
 15 21  1  0     0  0
 15 28  1  0     0  0
 16 20  1  0     0  0
 17 21  2  0     0  0
 18 22  1  0     0  0
 19 23  1  0     0  0
 22 23  2  0     0  0
 24 30  1  0     0  0
 25 31  1  0     0  0
 29 32  1  0     0  0
 32 33  1  0     0  0
 33 34  1  0     0  0
M  END
> <standard_type>
pIC50

> <# Confs.>
25

> <canonical_smiles>
O=C(CC1=CC=CC=C1CC(O)=O)NC2=CC=C(CN3C(COC)=C(Cl)N=C3CCCC)C=C2

> <standard_relation>
=

> <Publication_ID>
nan

> <predicted_activity_value>
5.1487416512809245

> <actual_activity_value>
5.552841968657781

> <Compound>
17

> <standard_units>
nM

> hash
15369469530252257554

$$$$
14
XXILIB    08252103513D 0   0.00000     0.00000

 28 31  0     1  0            999 V2000
   -3.5590    0.0029   -1.4785 Cl  0  0  0  0  0  1           0  0  0
    4.0473   -0.1705   -3.6810 N   0  0  0  0  0  3           0  0  0
   -0.6371    3.4657   -3.4876 N   0  0  0  0  0  3           0  0  0
    4.9298   -0.5420   -2.7639 N   0  0  0  0  0  3           0  0  0
    0.5392    3.1428   -4.0083 N   0  0  0  0  0  3           0  0  0
    3.2667    0.7291   -3.0680 N   0  0  0  0  0  3           0  0  0
   -1.0752    2.3461   -2.8973 N   0  0  0  0  0  3           0  0  0
    4.7146    0.1153   -1.5746 N   0  0  0  0  0  3           0  0  0
    0.8503    1.8275   -3.7520 N   0  0  0  0  0  3           0  0  0
    0.0000    0.0000    0.0000 N   0  0  0  0  0  3           0  0  0
   -2.0837   -0.0002    0.7714 N   0  0  0  0  0  3           0  0  0
   -2.0990   -0.0049   -0.5984 C   0  0  0  0  0  4           0  0  0
    3.6781    0.9054   -1.7749 C   0  0  0  0  0  4           0  0  0
   -0.1617    1.3424   -3.0616 C   0  0  0  0  0  4           0  0  0
   -0.8123    0.0000    1.1177 C   0  0  0  0  0  4           0  0  0
   -0.8164   -0.0135   -1.1139 C   0  0  0  0  0  4           0  0  0
    3.0505    1.8059   -0.8388 C   0  0  0  0  0  4           0  0  0
    1.9918    1.3966   -0.0000 C   0  0  0  0  0  4           0  0  0
    3.5280    3.1245   -0.7637 C   0  0  0  0  0  4           0  0  0
    1.4403    2.3305    0.8957 C   0  0  0  0  0  4           0  0  0
    2.9622    4.0362    0.1262 C   0  0  0  0  0  4           0  0  0
    1.9184    3.6399    0.9552 C   0  0  0  0  0  4           0  0  0
    1.4499    0.0000   -0.0000 C   0  0  0  0  0  4           0  0  0
   -0.3358   -0.0232   -2.5209 C   0  0  0  0  0  4           0  0  0
   -0.3185    0.0095    2.5201 C   0  0  0  0  0  4           0  0  0
   -1.0596   -0.9886    3.4050 C   0  0  0  0  0  4           0  0  0
   -0.9464   -2.4436    2.9479 C   0  0  0  0  0  4           0  0  0
   -1.7062   -3.3804    3.8724 C   0  0  0  0  0  4           0  0  0
  1 12  1  0     0  0
  2  4  2  0     0  0
  2  6  1  0     0  0
  3  5  2  0     0  0
  3  7  1  0     0  0
  4  8  1  0     0  0
  5  9  1  0     0  0
  6 13  1  0     0  0
  7 14  1  0     0  0
  8 13  2  0     0  0
  9 14  2  0     0  0
 10 15  1  0     0  0
 10 16  1  0     0  0
 10 23  1  0     0  0
 11 12  1  0     0  0
 11 15  2  0     0  0
 12 16  2  0     0  0
 13 17  1  0     0  0
 14 24  1  0     0  0
 15 25  1  0     0  0
 16 24  1  0     0  0
 17 18  1  0     0  0
 17 19  2  0     0  0
 18 20  2  0     0  0
 18 23  1  0     0  0
 19 21  1  0     0  0
 20 22  1  0     0  0
 21 22  2  0     0  0
 25 26  1  0     0  0
 26 27  1  0     0  0
 27 28  1  0     0  0
M  END
> <standard_type>
pIC50

> <# Confs.>
25

> <canonical_smiles>
ClC(N=C1CCCC)=C(CC2=NN=NN2)N1CC3=CC=CC=C3C4=NN=NN4

> <standard_relation>
=

> <Publication_ID>
nan

> <predicted_activity_value>
5.0

> <actual_activity_value>
5.920818753952375

> <Compound>
15

> <standard_units>
nM

> hash
13619753703845672401

$$$$
14
XXILIB    08252103513D 0   0.00000     0.00000

 28 31  0     1  0            999 V2000
   -3.5590    0.0029   -1.4785 Cl  0  0  0  0  0  1           0  0  0
    4.1066    0.2130   -3.6292 N   0  0  0  0  0  3           0  0  0
   -0.6127   -3.5256   -3.4454 N   0  0  0  0  0  3           0  0  0
    4.9901    0.5458   -2.6984 N   0  0  0  0  0  3           0  0  0
    0.5541   -3.1967   -3.9835 N   0  0  0  0  0  3           0  0  0
    3.3044   -0.6848   -3.0421 N   0  0  0  0  0  3           0  0  0
   -1.0521   -2.4058   -2.8566 N   0  0  0  0  0  3           0  0  0
    4.7539   -0.1341   -1.5258 N   0  0  0  0  0  3           0  0  0
    0.8572   -1.8769   -3.7408 N   0  0  0  0  0  3           0  0  0
    0.0000    0.0000    0.0000 N   0  0  0  0  0  3           0  0  0
   -2.0837   -0.0002    0.7714 N   0  0  0  0  0  3           0  0  0
   -2.0990   -0.0049   -0.5984 C   0  0  0  0  0  4           0  0  0
    3.7015   -0.8963   -1.7497 C   0  0  0  0  0  4           0  0  0
   -0.1484   -1.3962   -3.0382 C   0  0  0  0  0  4           0  0  0
   -0.8123    0.0000    1.1177 C   0  0  0  0  0  4           0  0  0
   -0.8164   -0.0135   -1.1139 C   0  0  0  0  0  4           0  0  0
    3.0505   -1.8059   -0.8388 C   0  0  0  0  0  4           0  0  0
    1.9918   -1.3966    0.0000 C   0  0  0  0  0  4           0  0  0
    3.4877   -3.1401   -0.8070 C   0  0  0  0  0  4           0  0  0
    1.3996   -2.3463    0.8520 C   0  0  0  0  0  4           0  0  0
    2.8915   -4.0636    0.0504 C   0  0  0  0  0  4           0  0  0
    1.8484   -3.6671    0.8801 C   0  0  0  0  0  4           0  0  0
    1.4499   -0.0000   -0.0000 C   0  0  0  0  0  4           0  0  0
   -0.3358   -0.0232   -2.5209 C   0  0  0  0  0  4           0  0  0
   -0.3185    0.0095    2.5201 C   0  0  0  0  0  4           0  0  0
   -1.0721    1.0062    3.3959 C   0  0  0  0  0  4           0  0  0
   -0.9771    2.4583    2.9255 C   0  0  0  0  0  4           0  0  0
   -1.7487    3.3938    3.8416 C   0  0  0  0  0  4           0  0  0
  1 12  1  0     0  0
  2  4  2  0     0  0
  2  6  1  0     0  0
  3  5  2  0     0  0
  3  7  1  0     0  0
  4  8  1  0     0  0
  5  9  1  0     0  0
  6 13  1  0     0  0
  7 14  1  0     0  0
  8 13  2  0     0  0
  9 14  2  0     0  0
 10 15  1  0     0  0
 10 16  1  0     0  0
 10 23  1  0     0  0
 11 12  1  0     0  0
 11 15  2  0     0  0
 12 16  2  0     0  0
 13 17  1  0     0  0
 14 24  1  0     0  0
 15 25  1  0     0  0
 16 24  1  0     0  0
 17 18  1  0     0  0
 17 19  2  0     0  0
 18 20  2  0     0  0
 18 23  1  0     0  0
 19 21  1  0     0  0
 20 22  1  0     0  0
 21 22  2  0     0  0
 25 26  1  0     0  0
 26 27  1  0     0  0
 27 28  1  0     0  0
M  END
> <standard_type>
pIC50

> <# Confs.>
25

> <canonical_smiles>
ClC(N=C1CCCC)=C(CC2=NN=NN2)N1CC3=CC=CC=C3C4=NN=NN4

> <standard_relation>
=

> <Publication_ID>
nan

> <predicted_activity_value>
5.0

> <actual_activity_value>
5.920818753952375

> <Compound>
15

> <standard_units>
nM

> hash
13619753703845672401

$$$$
14
XXILIB    08252103513D 0   0.00000     0.00000

 28 31  0     1  0            999 V2000
   -3.5590    0.0029   -1.4785 Cl  0  0  0  0  0  1           0  0  0
    4.0473   -0.1705   -3.6810 N   0  0  0  0  0  3           0  0  0
   -0.6371    3.4657   -3.4876 N   0  0  0  0  0  3           0  0  0
    4.9298   -0.5420   -2.7639 N   0  0  0  0  0  3           0  0  0
    0.5392    3.1428   -4.0083 N   0  0  0  0  0  3           0  0  0
    3.2667    0.7291   -3.0680 N   0  0  0  0  0  3           0  0  0
   -1.0752    2.3461   -2.8973 N   0  0  0  0  0  3           0  0  0
    4.7146    0.1153   -1.5746 N   0  0  0  0  0  3           0  0  0
    0.8503    1.8275   -3.7520 N   0  0  0  0  0  3           0  0  0
    0.0000    0.0000    0.0000 N   0  0  0  0  0  3           0  0  0
   -2.0837   -0.0002    0.7714 N   0  0  0  0  0  3           0  0  0
   -2.0990   -0.0049   -0.5984 C   0  0  0  0  0  4           0  0  0
    3.6781    0.9054   -1.7749 C   0  0  0  0  0  4           0  0  0
   -0.1617    1.3424   -3.0616 C   0  0  0  0  0  4           0  0  0
   -0.8123    0.0000    1.1177 C   0  0  0  0  0  4           0  0  0
   -0.8164   -0.0135   -1.1139 C   0  0  0  0  0  4           0  0  0
    3.0505    1.8059   -0.8388 C   0  0  0  0  0  4           0  0  0
    1.9918    1.3966   -0.0000 C   0  0  0  0  0  4           0  0  0
    3.5280    3.1245   -0.7637 C   0  0  0  0  0  4           0  0  0
    1.4403    2.3305    0.8957 C   0  0  0  0  0  4           0  0  0
    2.9622    4.0362    0.1262 C   0  0  0  0  0  4           0  0  0
    1.9184    3.6399    0.9552 C   0  0  0  0  0  4           0  0  0
    1.4499    0.0000   -0.0000 C   0  0  0  0  0  4           0  0  0
   -0.3358   -0.0232   -2.5209 C   0  0  0  0  0  4           0  0  0
   -0.3185    0.0095    2.5201 C   0  0  0  0  0  4           0  0  0
   -1.0596   -0.9886    3.4050 C   0  0  0  0  0  4           0  0  0
   -0.5867   -1.0160    4.8591 C   0  0  0  0  0  4           0  0  0
   -1.3659   -2.0296    5.6809 C   0  0  0  0  0  4           0  0  0
  1 12  1  0     0  0
  2  4  2  0     0  0
  2  6  1  0     0  0
  3  5  2  0     0  0
  3  7  1  0     0  0
  4  8  1  0     0  0
  5  9  1  0     0  0
  6 13  1  0     0  0
  7 14  1  0     0  0
  8 13  2  0     0  0
  9 14  2  0     0  0
 10 15  1  0     0  0
 10 16  1  0     0  0
 10 23  1  0     0  0
 11 12  1  0     0  0
 11 15  2  0     0  0
 12 16  2  0     0  0
 13 17  1  0     0  0
 14 24  1  0     0  0
 15 25  1  0     0  0
 16 24  1  0     0  0
 17 18  1  0     0  0
 17 19  2  0     0  0
 18 20  2  0     0  0
 18 23  1  0     0  0
 19 21  1  0     0  0
 20 22  1  0     0  0
 21 22  2  0     0  0
 25 26  1  0     0  0
 26 27  1  0     0  0
 27 28  1  0     0  0
M  END
> <standard_type>
pIC50

> <# Confs.>
25

> <canonical_smiles>
ClC(N=C1CCCC)=C(CC2=NN=NN2)N1CC3=CC=CC=C3C4=NN=NN4

> <standard_relation>
=

> <Publication_ID>
nan

> <predicted_activity_value>
5.0

> <actual_activity_value>
5.920818753952375

> <Compound>
15

> <standard_units>
nM

> hash
13619753703845672401

$$$$
14
XXILIB    08252103513D 0   0.00000     0.00000

 28 31  0     1  0            999 V2000
   -3.5590    0.0029   -1.4785 Cl  0  0  0  0  0  1           0  0  0
    4.1066    0.2130   -3.6292 N   0  0  0  0  0  3           0  0  0
   -0.6127   -3.5256   -3.4454 N   0  0  0  0  0  3           0  0  0
    4.9901    0.5458   -2.6984 N   0  0  0  0  0  3           0  0  0
    0.5541   -3.1967   -3.9835 N   0  0  0  0  0  3           0  0  0
    3.3044   -0.6848   -3.0421 N   0  0  0  0  0  3           0  0  0
   -1.0521   -2.4058   -2.8566 N   0  0  0  0  0  3           0  0  0
    4.7539   -0.1341   -1.5258 N   0  0  0  0  0  3           0  0  0
    0.8572   -1.8769   -3.7408 N   0  0  0  0  0  3           0  0  0
    0.0000    0.0000    0.0000 N   0  0  0  0  0  3           0  0  0
   -2.0837   -0.0002    0.7714 N   0  0  0  0  0  3           0  0  0
   -2.0990   -0.0049   -0.5984 C   0  0  0  0  0  4           0  0  0
    3.7015   -0.8963   -1.7497 C   0  0  0  0  0  4           0  0  0
   -0.1484   -1.3962   -3.0382 C   0  0  0  0  0  4           0  0  0
   -0.8123    0.0000    1.1177 C   0  0  0  0  0  4           0  0  0
   -0.8164   -0.0135   -1.1139 C   0  0  0  0  0  4           0  0  0
    3.0505   -1.8059   -0.8388 C   0  0  0  0  0  4           0  0  0
    1.9918   -1.3966    0.0000 C   0  0  0  0  0  4           0  0  0
    3.4877   -3.1401   -0.8070 C   0  0  0  0  0  4           0  0  0
    1.3996   -2.3463    0.8520 C   0  0  0  0  0  4           0  0  0
    2.8915   -4.0636    0.0504 C   0  0  0  0  0  4           0  0  0
    1.8484   -3.6671    0.8801 C   0  0  0  0  0  4           0  0  0
    1.4499   -0.0000   -0.0000 C   0  0  0  0  0  4           0  0  0
   -0.3358   -0.0232   -2.5209 C   0  0  0  0  0  4           0  0  0
   -0.3185    0.0095    2.5201 C   0  0  0  0  0  4           0  0  0
   -1.0721    1.0062    3.3959 C   0  0  0  0  0  4           0  0  0
   -0.5997    1.0528    4.8497 C   0  0  0  0  0  4           0  0  0
   -1.3916    2.0640    5.6623 C   0  0  0  0  0  4           0  0  0
  1 12  1  0     0  0
  2  4  2  0     0  0
  2  6  1  0     0  0
  3  5  2  0     0  0
  3  7  1  0     0  0
  4  8  1  0     0  0
  5  9  1  0     0  0
  6 13  1  0     0  0
  7 14  1  0     0  0
  8 13  2  0     0  0
  9 14  2  0     0  0
 10 15  1  0     0  0
 10 16  1  0     0  0
 10 23  1  0     0  0
 11 12  1  0     0  0
 11 15  2  0     0  0
 12 16  2  0     0  0
 13 17  1  0     0  0
 14 24  1  0     0  0
 15 25  1  0     0  0
 16 24  1  0     0  0
 17 18  1  0     0  0
 17 19  2  0     0  0
 18 20  2  0     0  0
 18 23  1  0     0  0
 19 21  1  0     0  0
 20 22  1  0     0  0
 21 22  2  0     0  0
 25 26  1  0     0  0
 26 27  1  0     0  0
 27 28  1  0     0  0
M  END
> <standard_type>
pIC50

> <# Confs.>
25

> <canonical_smiles>
ClC(N=C1CCCC)=C(CC2=NN=NN2)N1CC3=CC=CC=C3C4=NN=NN4

> <standard_relation>
=

> <Publication_ID>
nan

> <predicted_activity_value>
5.0

> <actual_activity_value>
5.920818753952375

> <Compound>
15

> <standard_units>
nM

> hash
13619753703845672401

$$$$
14
XXILIB    08252103513D 0   0.00000     0.00000

 28 31  0     1  0            999 V2000
   -3.5590    0.0029   -1.4785 Cl  0  0  0  0  0  1           0  0  0
    4.1066    0.2130   -3.6292 N   0  0  0  0  0  3           0  0  0
   -0.6127   -3.5256   -3.4454 N   0  0  0  0  0  3           0  0  0
    4.9901    0.5458   -2.6984 N   0  0  0  0  0  3           0  0  0
    0.5541   -3.1967   -3.9835 N   0  0  0  0  0  3           0  0  0
    3.3044   -0.6848   -3.0421 N   0  0  0  0  0  3           0  0  0
   -1.0521   -2.4058   -2.8566 N   0  0  0  0  0  3           0  0  0
    4.7539   -0.1341   -1.5258 N   0  0  0  0  0  3           0  0  0
    0.8572   -1.8769   -3.7408 N   0  0  0  0  0  3           0  0  0
    0.0000    0.0000    0.0000 N   0  0  0  0  0  3           0  0  0
   -2.0837   -0.0002    0.7714 N   0  0  0  0  0  3           0  0  0
   -2.0990   -0.0049   -0.5984 C   0  0  0  0  0  4           0  0  0
    3.7015   -0.8963   -1.7497 C   0  0  0  0  0  4           0  0  0
   -0.1484   -1.3962   -3.0382 C   0  0  0  0  0  4           0  0  0
   -0.8123    0.0000    1.1177 C   0  0  0  0  0  4           0  0  0
   -0.8164   -0.0135   -1.1139 C   0  0  0  0  0  4           0  0  0
    3.0505   -1.8059   -0.8388 C   0  0  0  0  0  4           0  0  0
    1.9918   -1.3966    0.0000 C   0  0  0  0  0  4           0  0  0
    3.4877   -3.1401   -0.8070 C   0  0  0  0  0  4           0  0  0
    1.3996   -2.3463    0.8520 C   0  0  0  0  0  4           0  0  0
    2.8915   -4.0636    0.0504 C   0  0  0  0  0  4           0  0  0
    1.8484   -3.6671    0.8801 C   0  0  0  0  0  4           0  0  0
    1.4499   -0.0000   -0.0000 C   0  0  0  0  0  4           0  0  0
   -0.3358   -0.0232   -2.5209 C   0  0  0  0  0  4           0  0  0
   -0.3185    0.0095    2.5201 C   0  0  0  0  0  4           0  0  0
   -1.0596   -0.9886    3.4050 C   0  0  0  0  0  4           0  0  0
   -0.5867   -1.0160    4.8591 C   0  0  0  0  0  4           0  0  0
   -1.3659   -2.0296    5.6809 C   0  0  0  0  0  4           0  0  0
  1 12  1  0     0  0
  2  4  2  0     0  0
  2  6  1  0     0  0
  3  5  2  0     0  0
  3  7  1  0     0  0
  4  8  1  0     0  0
  5  9  1  0     0  0
  6 13  1  0     0  0
  7 14  1  0     0  0
  8 13  2  0     0  0
  9 14  2  0     0  0
 10 15  1  0     0  0
 10 16  1  0     0  0
 10 23  1  0     0  0
 11 12  1  0     0  0
 11 15  2  0     0  0
 12 16  2  0     0  0
 13 17  1  0     0  0
 14 24  1  0     0  0
 15 25  1  0     0  0
 16 24  1  0     0  0
 17 18  1  0     0  0
 17 19  2  0     0  0
 18 20  2  0     0  0
 18 23  1  0     0  0
 19 21  1  0     0  0
 20 22  1  0     0  0
 21 22  2  0     0  0
 25 26  1  0     0  0
 26 27  1  0     0  0
 27 28  1  0     0  0
M  END
> <standard_type>
pIC50

> <# Confs.>
25

> <canonical_smiles>
ClC(N=C1CCCC)=C(CC2=NN=NN2)N1CC3=CC=CC=C3C4=NN=NN4

> <standard_relation>
=

> <Publication_ID>
nan

> <predicted_activity_value>
5.0

> <actual_activity_value>
5.920818753952375

> <Compound>
15

> <standard_units>
nM

> hash
13619753703845672401

$$$$
14
XXILIB    08252103513D 0   0.00000     0.00000

 28 31  0     1  0            999 V2000
   -3.5590    0.0029   -1.4785 Cl  0  0  0  0  0  1           0  0  0
    4.7907   -0.2024   -3.5550 N   0  0  0  0  0  3           0  0  0
   -0.6127   -3.5256   -3.4454 N   0  0  0  0  0  3           0  0  0
    4.5469    0.8175   -2.7438 N   0  0  0  0  0  3           0  0  0
    0.5541   -3.1967   -3.9835 N   0  0  0  0  0  3           0  0  0
    4.2668   -1.2700   -2.9386 N   0  0  0  0  0  3           0  0  0
   -1.0521   -2.4058   -2.8566 N   0  0  0  0  0  3           0  0  0
    3.8723    0.4045   -1.6180 N   0  0  0  0  0  3           0  0  0
    0.8572   -1.8769   -3.7408 N   0  0  0  0  0  3           0  0  0
    0.0000    0.0000    0.0000 N   0  0  0  0  0  3           0  0  0
   -2.0837   -0.0002    0.7714 N   0  0  0  0  0  3           0  0  0
   -2.0990   -0.0049   -0.5984 C   0  0  0  0  0  4           0  0  0
    3.7015   -0.8963   -1.7497 C   0  0  0  0  0  4           0  0  0
   -0.1484   -1.3962   -3.0382 C   0  0  0  0  0  4           0  0  0
   -0.8123    0.0000    1.1177 C   0  0  0  0  0  4           0  0  0
   -0.8164   -0.0135   -1.1139 C   0  0  0  0  0  4           0  0  0
    3.0505   -1.8059   -0.8388 C   0  0  0  0  0  4           0  0  0
    1.9918   -1.3966    0.0000 C   0  0  0  0  0  4           0  0  0
    3.4877   -3.1401   -0.8070 C   0  0  0  0  0  4           0  0  0
    1.3996   -2.3463    0.8520 C   0  0  0  0  0  4           0  0  0
    2.8915   -4.0636    0.0504 C   0  0  0  0  0  4           0  0  0
    1.8484   -3.6671    0.8801 C   0  0  0  0  0  4           0  0  0
    1.4499   -0.0000   -0.0000 C   0  0  0  0  0  4           0  0  0
   -0.3358   -0.0232   -2.5209 C   0  0  0  0  0  4           0  0  0
   -0.3185    0.0095    2.5201 C   0  0  0  0  0  4           0  0  0
   -0.1340    1.4237    3.0627 C   0  0  0  0  0  4           0  0  0
    0.3733    1.4858    4.5041 C   0  0  0  0  0  4           0  0  0
    0.5337    2.9208    4.9785 C   0  0  0  0  0  4           0  0  0
  1 12  1  0     0  0
  2  4  2  0     0  0
  2  6  1  0     0  0
  3  5  2  0     0  0
  3  7  1  0     0  0
  4  8  1  0     0  0
  5  9  1  0     0  0
  6 13  1  0     0  0
  7 14  1  0     0  0
  8 13  2  0     0  0
  9 14  2  0     0  0
 10 15  1  0     0  0
 10 16  1  0     0  0
 10 23  1  0     0  0
 11 12  1  0     0  0
 11 15  2  0     0  0
 12 16  2  0     0  0
 13 17  1  0     0  0
 14 24  1  0     0  0
 15 25  1  0     0  0
 16 24  1  0     0  0
 17 18  1  0     0  0
 17 19  2  0     0  0
 18 20  2  0     0  0
 18 23  1  0     0  0
 19 21  1  0     0  0
 20 22  1  0     0  0
 21 22  2  0     0  0
 25 26  1  0     0  0
 26 27  1  0     0  0
 27 28  1  0     0  0
M  END
> <standard_type>
pIC50

> <# Confs.>
25

> <canonical_smiles>
ClC(N=C1CCCC)=C(CC2=NN=NN2)N1CC3=CC=CC=C3C4=NN=NN4

> <standard_relation>
=

> <Publication_ID>
nan

> <predicted_activity_value>
5.0

> <actual_activity_value>
5.920818753952375

> <Compound>
15

> <standard_units>
nM

> hash
13619753703845672401

$$$$
14
XXILIB    08252103513D 0   0.00000     0.00000

 28 31  0     1  0            999 V2000
   -3.5590    0.0029   -1.4785 Cl  0  0  0  0  0  1           0  0  0
    6.3008   -0.3739   -0.4404 N   0  0  0  0  0  3           0  0  0
   -0.6371    3.4657   -3.4876 N   0  0  0  0  0  3           0  0  0
    5.4858   -1.1917    0.2112 N   0  0  0  0  0  3           0  0  0
    0.5392    3.1428   -4.0083 N   0  0  0  0  0  3           0  0  0
    5.6090    0.7639   -0.5852 N   0  0  0  0  0  3           0  0  0
   -1.0752    2.3461   -2.8973 N   0  0  0  0  0  3           0  0  0
    4.2828   -0.5808    0.4807 N   0  0  0  0  0  3           0  0  0
    0.8503    1.8275   -3.7520 N   0  0  0  0  0  3           0  0  0
    0.0000    0.0000    0.0000 N   0  0  0  0  0  3           0  0  0
   -2.0837   -0.0002    0.7714 N   0  0  0  0  0  3           0  0  0
   -2.0990   -0.0049   -0.5984 C   0  0  0  0  0  4           0  0  0
    4.3703    0.6367   -0.0178 C   0  0  0  0  0  4           0  0  0
   -0.1617    1.3424   -3.0616 C   0  0  0  0  0  4           0  0  0
   -0.8123    0.0000    1.1177 C   0  0  0  0  0  4           0  0  0
   -0.8164   -0.0135   -1.1139 C   0  0  0  0  0  4           0  0  0
    3.3744    1.6802   -0.0000 C   0  0  0  0  0  4           0  0  0
    1.9918    1.3966    0.0000 C   0  0  0  0  0  4           0  0  0
    3.8111    3.0146    0.0306 C   0  0  0  0  0  4           0  0  0
    1.0825    2.4694    0.0309 C   0  0  0  0  0  4           0  0  0
    2.8927    4.0631    0.0536 C   0  0  0  0  0  4           0  0  0
    1.5290    3.7910    0.0531 C   0  0  0  0  0  4           0  0  0
    1.4499   -0.0000   -0.0000 C   0  0  0  0  0  4           0  0  0
   -0.3358   -0.0232   -2.5209 C   0  0  0  0  0  4           0  0  0
   -0.3185    0.0095    2.5201 C   0  0  0  0  0  4           0  0  0
   -0.1163   -1.3973    3.0756 C   0  0  0  0  0  4           0  0  0
    0.3917   -1.4399    4.5174 C   0  0  0  0  0  4           0  0  0
    0.5700   -2.8684    5.0049 C   0  0  0  0  0  4           0  0  0
  1 12  1  0     0  0
  2  4  2  0     0  0
  2  6  1  0     0  0
  3  5  2  0     0  0
  3  7  1  0     0  0
  4  8  1  0     0  0
  5  9  1  0     0  0
  6 13  1  0     0  0
  7 14  1  0     0  0
  8 13  2  0     0  0
  9 14  2  0     0  0
 10 15  1  0     0  0
 10 16  1  0     0  0
 10 23  1  0     0  0
 11 12  1  0     0  0
 11 15  2  0     0  0
 12 16  2  0     0  0
 13 17  1  0     0  0
 14 24  1  0     0  0
 15 25  1  0     0  0
 16 24  1  0     0  0
 17 18  1  0     0  0
 17 19  2  0     0  0
 18 20  2  0     0  0
 18 23  1  0     0  0
 19 21  1  0     0  0
 20 22  1  0     0  0
 21 22  2  0     0  0
 25 26  1  0     0  0
 26 27  1  0     0  0
 27 28  1  0     0  0
M  END
> <standard_type>
pIC50

> <# Confs.>
25

> <canonical_smiles>
ClC(N=C1CCCC)=C(CC2=NN=NN2)N1CC3=CC=CC=C3C4=NN=NN4

> <standard_relation>
=

> <Publication_ID>
nan

> <predicted_activity_value>
5.0

> <actual_activity_value>
5.920818753952375

> <Compound>
15

> <standard_units>
nM

> hash
13619753703845672401

$$$$
14
XXILIB    08252103513D 0   0.00000     0.00000

 28 31  0     1  0            999 V2000
   -3.5590    0.0029   -1.4785 Cl  0  0  0  0  0  1           0  0  0
    6.3008   -0.3739   -0.4404 N   0  0  0  0  0  3           0  0  0
   -0.6371    3.4657   -3.4876 N   0  0  0  0  0  3           0  0  0
    5.4858   -1.1917    0.2112 N   0  0  0  0  0  3           0  0  0
    0.5392    3.1428   -4.0083 N   0  0  0  0  0  3           0  0  0
    5.6090    0.7639   -0.5852 N   0  0  0  0  0  3           0  0  0
   -1.0752    2.3461   -2.8973 N   0  0  0  0  0  3           0  0  0
    4.2828   -0.5808    0.4807 N   0  0  0  0  0  3           0  0  0
    0.8503    1.8275   -3.7520 N   0  0  0  0  0  3           0  0  0
    0.0000    0.0000    0.0000 N   0  0  0  0  0  3           0  0  0
   -2.0837   -0.0002    0.7714 N   0  0  0  0  0  3           0  0  0
   -2.0990   -0.0049   -0.5984 C   0  0  0  0  0  4           0  0  0
    4.3703    0.6367   -0.0178 C   0  0  0  0  0  4           0  0  0
   -0.1617    1.3424   -3.0616 C   0  0  0  0  0  4           0  0  0
   -0.8123    0.0000    1.1177 C   0  0  0  0  0  4           0  0  0
   -0.8164   -0.0135   -1.1139 C   0  0  0  0  0  4           0  0  0
    3.3744    1.6802   -0.0000 C   0  0  0  0  0  4           0  0  0
    1.9918    1.3966    0.0000 C   0  0  0  0  0  4           0  0  0
    3.8111    3.0146    0.0306 C   0  0  0  0  0  4           0  0  0
    1.0825    2.4694    0.0309 C   0  0  0  0  0  4           0  0  0
    2.8927    4.0631    0.0536 C   0  0  0  0  0  4           0  0  0
    1.5290    3.7910    0.0531 C   0  0  0  0  0  4           0  0  0
    1.4499   -0.0000   -0.0000 C   0  0  0  0  0  4           0  0  0
   -0.3358   -0.0232   -2.5209 C   0  0  0  0  0  4           0  0  0
   -0.3185    0.0095    2.5201 C   0  0  0  0  0  4           0  0  0
   -0.1163   -1.3973    3.0756 C   0  0  0  0  0  4           0  0  0
   -1.3825   -2.2546    3.1002 C   0  0  0  0  0  4           0  0  0
   -1.1088   -3.6392    3.6638 C   0  0  0  0  0  4           0  0  0
  1 12  1  0     0  0
  2  4  2  0     0  0
  2  6  1  0     0  0
  3  5  2  0     0  0
  3  7  1  0     0  0
  4  8  1  0     0  0
  5  9  1  0     0  0
  6 13  1  0     0  0
  7 14  1  0     0  0
  8 13  2  0     0  0
  9 14  2  0     0  0
 10 15  1  0     0  0
 10 16  1  0     0  0
 10 23  1  0     0  0
 11 12  1  0     0  0
 11 15  2  0     0  0
 12 16  2  0     0  0
 13 17  1  0     0  0
 14 24  1  0     0  0
 15 25  1  0     0  0
 16 24  1  0     0  0
 17 18  1  0     0  0
 17 19  2  0     0  0
 18 20  2  0     0  0
 18 23  1  0     0  0
 19 21  1  0     0  0
 20 22  1  0     0  0
 21 22  2  0     0  0
 25 26  1  0     0  0
 26 27  1  0     0  0
 27 28  1  0     0  0
M  END
> <standard_type>
pIC50

> <# Confs.>
25

> <canonical_smiles>
ClC(N=C1CCCC)=C(CC2=NN=NN2)N1CC3=CC=CC=C3C4=NN=NN4

> <standard_relation>
=

> <Publication_ID>
nan

> <predicted_activity_value>
5.0

> <actual_activity_value>
5.920818753952375

> <Compound>
15

> <standard_units>
nM

> hash
13619753703845672401

$$$$
14
XXILIB    08252103513D 0   0.00000     0.00000

 28 31  0     1  0            999 V2000
   -3.5590    0.0029   -1.4785 Cl  0  0  0  0  0  1           0  0  0
    4.7387    0.2323   -3.6049 N   0  0  0  0  0  3           0  0  0
   -0.6371    3.4657   -3.4876 N   0  0  0  0  0  3           0  0  0
    4.4799   -0.8014   -2.8160 N   0  0  0  0  0  3           0  0  0
    0.5392    3.1428   -4.0083 N   0  0  0  0  0  3           0  0  0
    4.2400    1.2952   -2.9601 N   0  0  0  0  0  3           0  0  0
   -1.0752    2.3461   -2.8973 N   0  0  0  0  0  3           0  0  0
    3.8212   -0.4017   -1.6762 N   0  0  0  0  0  3           0  0  0
    0.8503    1.8275   -3.7520 N   0  0  0  0  0  3           0  0  0
    0.0000    0.0000    0.0000 N   0  0  0  0  0  3           0  0  0
   -2.0837   -0.0002    0.7714 N   0  0  0  0  0  3           0  0  0
   -2.0990   -0.0049   -0.5984 C   0  0  0  0  0  4           0  0  0
    3.6781    0.9054   -1.7749 C   0  0  0  0  0  4           0  0  0
   -0.1617    1.3424   -3.0616 C   0  0  0  0  0  4           0  0  0
   -0.8123    0.0000    1.1177 C   0  0  0  0  0  4           0  0  0
   -0.8164   -0.0135   -1.1139 C   0  0  0  0  0  4           0  0  0
    3.0505    1.8059   -0.8388 C   0  0  0  0  0  4           0  0  0
    1.9918    1.3966   -0.0000 C   0  0  0  0  0  4           0  0  0
    3.5280    3.1245   -0.7637 C   0  0  0  0  0  4           0  0  0
    1.4403    2.3305    0.8957 C   0  0  0  0  0  4           0  0  0
    2.9622    4.0362    0.1262 C   0  0  0  0  0  4           0  0  0
    1.9184    3.6399    0.9552 C   0  0  0  0  0  4           0  0  0
    1.4499    0.0000   -0.0000 C   0  0  0  0  0  4           0  0  0
   -0.3358   -0.0232   -2.5209 C   0  0  0  0  0  4           0  0  0
   -0.3185    0.0095    2.5201 C   0  0  0  0  0  4           0  0  0
   -1.0721    1.0062    3.3959 C   0  0  0  0  0  4           0  0  0
   -0.5997    1.0528    4.8497 C   0  0  0  0  0  4           0  0  0
   -1.3916    2.0640    5.6623 C   0  0  0  0  0  4           0  0  0
  1 12  1  0     0  0
  2  4  2  0     0  0
  2  6  1  0     0  0
  3  5  2  0     0  0
  3  7  1  0     0  0
  4  8  1  0     0  0
  5  9  1  0     0  0
  6 13  1  0     0  0
  7 14  1  0     0  0
  8 13  2  0     0  0
  9 14  2  0     0  0
 10 15  1  0     0  0
 10 16  1  0     0  0
 10 23  1  0     0  0
 11 12  1  0     0  0
 11 15  2  0     0  0
 12 16  2  0     0  0
 13 17  1  0     0  0
 14 24  1  0     0  0
 15 25  1  0     0  0
 16 24  1  0     0  0
 17 18  1  0     0  0
 17 19  2  0     0  0
 18 20  2  0     0  0
 18 23  1  0     0  0
 19 21  1  0     0  0
 20 22  1  0     0  0
 21 22  2  0     0  0
 25 26  1  0     0  0
 26 27  1  0     0  0
 27 28  1  0     0  0
M  END
> <standard_type>
pIC50

> <# Confs.>
25

> <canonical_smiles>
ClC(N=C1CCCC)=C(CC2=NN=NN2)N1CC3=CC=CC=C3C4=NN=NN4

> <standard_relation>
=

> <Publication_ID>
nan

> <predicted_activity_value>
5.0

> <actual_activity_value>
5.920818753952375

> <Compound>
15

> <standard_units>
nM

> hash
13619753703845672401

$$$$
14
XXILIB    08252103513D 0   0.00000     0.00000

 28 31  0     1  0            999 V2000
   -3.5590    0.0029   -1.4785 Cl  0  0  0  0  0  1           0  0  0
    6.3038    0.3848   -0.3633 N   0  0  0  0  0  3           0  0  0
   -0.6127   -3.5256   -3.4454 N   0  0  0  0  0  3           0  0  0
    5.4865    1.1822    0.3106 N   0  0  0  0  0  3           0  0  0
    0.5541   -3.1967   -3.9835 N   0  0  0  0  0  3           0  0  0
    5.6123   -0.7478   -0.5458 N   0  0  0  0  0  3           0  0  0
   -1.0521   -2.4058   -2.8566 N   0  0  0  0  0  3           0  0  0
    4.2823    0.5636    0.5563 N   0  0  0  0  0  3           0  0  0
    0.8572   -1.8769   -3.7408 N   0  0  0  0  0  3           0  0  0
    0.0000    0.0000    0.0000 N   0  0  0  0  0  3           0  0  0
   -2.0837   -0.0002    0.7714 N   0  0  0  0  0  3           0  0  0
   -2.0990   -0.0049   -0.5984 C   0  0  0  0  0  4           0  0  0
    4.3703   -0.6367    0.0178 C   0  0  0  0  0  4           0  0  0
   -0.1484   -1.3962   -3.0382 C   0  0  0  0  0  4           0  0  0
   -0.8123    0.0000    1.1177 C   0  0  0  0  0  4           0  0  0
   -0.8164   -0.0135   -1.1139 C   0  0  0  0  0  4           0  0  0
    3.3744   -1.6802    0.0000 C   0  0  0  0  0  4           0  0  0
    1.9918   -1.3966    0.0000 C   0  0  0  0  0  4           0  0  0
    3.8111   -3.0146   -0.0306 C   0  0  0  0  0  4           0  0  0
    1.0825   -2.4694   -0.0309 C   0  0  0  0  0  4           0  0  0
    2.8927   -4.0631   -0.0536 C   0  0  0  0  0  4           0  0  0
    1.5290   -3.7910   -0.0531 C   0  0  0  0  0  4           0  0  0
    1.4499    0.0000    0.0000 C   0  0  0  0  0  4           0  0  0
   -0.3358   -0.0232   -2.5209 C   0  0  0  0  0  4           0  0  0
   -0.3185    0.0095    2.5201 C   0  0  0  0  0  4           0  0  0
   -0.1340    1.4237    3.0627 C   0  0  0  0  0  4           0  0  0
    0.3733    1.4858    4.5041 C   0  0  0  0  0  4           0  0  0
    0.5337    2.9208    4.9785 C   0  0  0  0  0  4           0  0  0
  1 12  1  0     0  0
  2  4  2  0     0  0
  2  6  1  0     0  0
  3  5  2  0     0  0
  3  7  1  0     0  0
  4  8  1  0     0  0
  5  9  1  0     0  0
  6 13  1  0     0  0
  7 14  1  0     0  0
  8 13  2  0     0  0
  9 14  2  0     0  0
 10 15  1  0     0  0
 10 16  1  0     0  0
 10 23  1  0     0  0
 11 12  1  0     0  0
 11 15  2  0     0  0
 12 16  2  0     0  0
 13 17  1  0     0  0
 14 24  1  0     0  0
 15 25  1  0     0  0
 16 24  1  0     0  0
 17 18  1  0     0  0
 17 19  2  0     0  0
 18 20  2  0     0  0
 18 23  1  0     0  0
 19 21  1  0     0  0
 20 22  1  0     0  0
 21 22  2  0     0  0
 25 26  1  0     0  0
 26 27  1  0     0  0
 27 28  1  0     0  0
M  END
> <standard_type>
pIC50

> <# Confs.>
25

> <canonical_smiles>
ClC(N=C1CCCC)=C(CC2=NN=NN2)N1CC3=CC=CC=C3C4=NN=NN4

> <standard_relation>
=

> <Publication_ID>
nan

> <predicted_activity_value>
5.0

> <actual_activity_value>
5.920818753952375

> <Compound>
15

> <standard_units>
nM

> hash
13619753703845672401

$$$$
14
XXILIB    08252103513D 0   0.00000     0.00000

 28 31  0     1  0            999 V2000
   -3.5590    0.0029   -1.4785 Cl  0  0  0  0  0  1           0  0  0
    6.3038    0.3848   -0.3633 N   0  0  0  0  0  3           0  0  0
   -0.6127   -3.5256   -3.4454 N   0  0  0  0  0  3           0  0  0
    5.4865    1.1822    0.3106 N   0  0  0  0  0  3           0  0  0
    0.5541   -3.1967   -3.9835 N   0  0  0  0  0  3           0  0  0
    5.6123   -0.7478   -0.5458 N   0  0  0  0  0  3           0  0  0
   -1.0521   -2.4058   -2.8566 N   0  0  0  0  0  3           0  0  0
    4.2823    0.5636    0.5563 N   0  0  0  0  0  3           0  0  0
    0.8572   -1.8769   -3.7408 N   0  0  0  0  0  3           0  0  0
    0.0000    0.0000    0.0000 N   0  0  0  0  0  3           0  0  0
   -2.0837   -0.0002    0.7714 N   0  0  0  0  0  3           0  0  0
   -2.0990   -0.0049   -0.5984 C   0  0  0  0  0  4           0  0  0
    4.3703   -0.6367    0.0178 C   0  0  0  0  0  4           0  0  0
   -0.1484   -1.3962   -3.0382 C   0  0  0  0  0  4           0  0  0
   -0.8123    0.0000    1.1177 C   0  0  0  0  0  4           0  0  0
   -0.8164   -0.0135   -1.1139 C   0  0  0  0  0  4           0  0  0
    3.3744   -1.6802    0.0000 C   0  0  0  0  0  4           0  0  0
    1.9918   -1.3966    0.0000 C   0  0  0  0  0  4           0  0  0
    3.8111   -3.0146   -0.0306 C   0  0  0  0  0  4           0  0  0
    1.0825   -2.4694   -0.0309 C   0  0  0  0  0  4           0  0  0
    2.8927   -4.0631   -0.0536 C   0  0  0  0  0  4           0  0  0
    1.5290   -3.7910   -0.0531 C   0  0  0  0  0  4           0  0  0
    1.4499    0.0000    0.0000 C   0  0  0  0  0  4           0  0  0
   -0.3358   -0.0232   -2.5209 C   0  0  0  0  0  4           0  0  0
   -0.3185    0.0095    2.5201 C   0  0  0  0  0  4           0  0  0
   -0.1340    1.4237    3.0627 C   0  0  0  0  0  4           0  0  0
   -1.4108    2.2652    3.0796 C   0  0  0  0  0  4           0  0  0
   -1.1545    3.6583    3.6306 C   0  0  0  0  0  4           0  0  0
  1 12  1  0     0  0
  2  4  2  0     0  0
  2  6  1  0     0  0
  3  5  2  0     0  0
  3  7  1  0     0  0
  4  8  1  0     0  0
  5  9  1  0     0  0
  6 13  1  0     0  0
  7 14  1  0     0  0
  8 13  2  0     0  0
  9 14  2  0     0  0
 10 15  1  0     0  0
 10 16  1  0     0  0
 10 23  1  0     0  0
 11 12  1  0     0  0
 11 15  2  0     0  0
 12 16  2  0     0  0
 13 17  1  0     0  0
 14 24  1  0     0  0
 15 25  1  0     0  0
 16 24  1  0     0  0
 17 18  1  0     0  0
 17 19  2  0     0  0
 18 20  2  0     0  0
 18 23  1  0     0  0
 19 21  1  0     0  0
 20 22  1  0     0  0
 21 22  2  0     0  0
 25 26  1  0     0  0
 26 27  1  0     0  0
 27 28  1  0     0  0
M  END
> <standard_type>
pIC50

> <# Confs.>
25

> <canonical_smiles>
ClC(N=C1CCCC)=C(CC2=NN=NN2)N1CC3=CC=CC=C3C4=NN=NN4

> <standard_relation>
=

> <Publication_ID>
nan

> <predicted_activity_value>
5.0

> <actual_activity_value>
5.920818753952375

> <Compound>
15

> <standard_units>
nM

> hash
13619753703845672401

$$$$
14
XXILIB    08252103513D 0   0.00000     0.00000

 28 31  0     1  0            999 V2000
   -3.5590    0.0029   -1.4785 Cl  0  0  0  0  0  1           0  0  0
    6.3008   -0.3739   -0.4404 N   0  0  0  0  0  3           0  0  0
   -0.6371    3.4657   -3.4876 N   0  0  0  0  0  3           0  0  0
    5.4858   -1.1917    0.2112 N   0  0  0  0  0  3           0  0  0
    0.5392    3.1428   -4.0083 N   0  0  0  0  0  3           0  0  0
    5.6090    0.7639   -0.5852 N   0  0  0  0  0  3           0  0  0
   -1.0752    2.3461   -2.8973 N   0  0  0  0  0  3           0  0  0
    4.2828   -0.5808    0.4807 N   0  0  0  0  0  3           0  0  0
    0.8503    1.8275   -3.7520 N   0  0  0  0  0  3           0  0  0
    0.0000    0.0000    0.0000 N   0  0  0  0  0  3           0  0  0
   -2.0837   -0.0002    0.7714 N   0  0  0  0  0  3           0  0  0
   -2.0990   -0.0049   -0.5984 C   0  0  0  0  0  4           0  0  0
    4.3703    0.6367   -0.0178 C   0  0  0  0  0  4           0  0  0
   -0.1617    1.3424   -3.0616 C   0  0  0  0  0  4           0  0  0
   -0.8123    0.0000    1.1177 C   0  0  0  0  0  4           0  0  0
   -0.8164   -0.0135   -1.1139 C   0  0  0  0  0  4           0  0  0
    3.3744    1.6802   -0.0000 C   0  0  0  0  0  4           0  0  0
    1.9918    1.3966    0.0000 C   0  0  0  0  0  4           0  0  0
    3.8111    3.0146    0.0306 C   0  0  0  0  0  4           0  0  0
    1.0825    2.4694    0.0309 C   0  0  0  0  0  4           0  0  0
    2.8927    4.0631    0.0536 C   0  0  0  0  0  4           0  0  0
    1.5290    3.7910    0.0531 C   0  0  0  0  0  4           0  0  0
    1.4499   -0.0000   -0.0000 C   0  0  0  0  0  4           0  0  0
   -0.3358   -0.0232   -2.5209 C   0  0  0  0  0  4           0  0  0
   -0.3185    0.0095    2.5201 C   0  0  0  0  0  4           0  0  0
   -1.4556    0.0070    3.5377 C   0  0  0  0  0  4           0  0  0
   -0.9973    0.0165    4.9967 C   0  0  0  0  0  4           0  0  0
   -2.1784    0.0135    5.9532 C   0  0  0  0  0  4           0  0  0
  1 12  1  0     0  0
  2  4  2  0     0  0
  2  6  1  0     0  0
  3  5  2  0     0  0
  3  7  1  0     0  0
  4  8  1  0     0  0
  5  9  1  0     0  0
  6 13  1  0     0  0
  7 14  1  0     0  0
  8 13  2  0     0  0
  9 14  2  0     0  0
 10 15  1  0     0  0
 10 16  1  0     0  0
 10 23  1  0     0  0
 11 12  1  0     0  0
 11 15  2  0     0  0
 12 16  2  0     0  0
 13 17  1  0     0  0
 14 24  1  0     0  0
 15 25  1  0     0  0
 16 24  1  0     0  0
 17 18  1  0     0  0
 17 19  2  0     0  0
 18 20  2  0     0  0
 18 23  1  0     0  0
 19 21  1  0     0  0
 20 22  1  0     0  0
 21 22  2  0     0  0
 25 26  1  0     0  0
 26 27  1  0     0  0
 27 28  1  0     0  0
M  END
> <standard_type>
pIC50

> <# Confs.>
25

> <canonical_smiles>
ClC(N=C1CCCC)=C(CC2=NN=NN2)N1CC3=CC=CC=C3C4=NN=NN4

> <standard_relation>
=

> <Publication_ID>
nan

> <predicted_activity_value>
5.0

> <actual_activity_value>
5.920818753952375

> <Compound>
15

> <standard_units>
nM

> hash
13619753703845672401

$$$$
14
XXILIB    08252103513D 0   0.00000     0.00000

 28 31  0     1  0            999 V2000
   -3.5590    0.0029   -1.4785 Cl  0  0  0  0  0  1           0  0  0
    6.3008   -0.3739   -0.4404 N   0  0  0  0  0  3           0  0  0
   -0.6127   -3.5256   -3.4454 N   0  0  0  0  0  3           0  0  0
    5.4858   -1.1917    0.2112 N   0  0  0  0  0  3           0  0  0
    0.5541   -3.1967   -3.9835 N   0  0  0  0  0  3           0  0  0
    5.6090    0.7639   -0.5852 N   0  0  0  0  0  3           0  0  0
   -1.0521   -2.4058   -2.8566 N   0  0  0  0  0  3           0  0  0
    4.2828   -0.5808    0.4807 N   0  0  0  0  0  3           0  0  0
    0.8572   -1.8769   -3.7408 N   0  0  0  0  0  3           0  0  0
    0.0000    0.0000    0.0000 N   0  0  0  0  0  3           0  0  0
   -2.0837   -0.0002    0.7714 N   0  0  0  0  0  3           0  0  0
   -2.0990   -0.0049   -0.5984 C   0  0  0  0  0  4           0  0  0
    4.3703    0.6367   -0.0178 C   0  0  0  0  0  4           0  0  0
   -0.1484   -1.3962   -3.0382 C   0  0  0  0  0  4           0  0  0
   -0.8123    0.0000    1.1177 C   0  0  0  0  0  4           0  0  0
   -0.8164   -0.0135   -1.1139 C   0  0  0  0  0  4           0  0  0
    3.3744    1.6802   -0.0000 C   0  0  0  0  0  4           0  0  0
    1.9918    1.3966    0.0000 C   0  0  0  0  0  4           0  0  0
    3.8111    3.0146    0.0306 C   0  0  0  0  0  4           0  0  0
    1.0825    2.4694    0.0309 C   0  0  0  0  0  4           0  0  0
    2.8927    4.0631    0.0536 C   0  0  0  0  0  4           0  0  0
    1.5290    3.7910    0.0531 C   0  0  0  0  0  4           0  0  0
    1.4499   -0.0000   -0.0000 C   0  0  0  0  0  4           0  0  0
   -0.3358   -0.0232   -2.5209 C   0  0  0  0  0  4           0  0  0
   -0.3185    0.0095    2.5201 C   0  0  0  0  0  4           0  0  0
   -0.1163   -1.3973    3.0756 C   0  0  0  0  0  4           0  0  0
    0.3917   -1.4399    4.5174 C   0  0  0  0  0  4           0  0  0
    0.5700   -2.8684    5.0049 C   0  0  0  0  0  4           0  0  0
  1 12  1  0     0  0
  2  4  2  0     0  0
  2  6  1  0     0  0
  3  5  2  0     0  0
  3  7  1  0     0  0
  4  8  1  0     0  0
  5  9  1  0     0  0
  6 13  1  0     0  0
  7 14  1  0     0  0
  8 13  2  0     0  0
  9 14  2  0     0  0
 10 15  1  0     0  0
 10 16  1  0     0  0
 10 23  1  0     0  0
 11 12  1  0     0  0
 11 15  2  0     0  0
 12 16  2  0     0  0
 13 17  1  0     0  0
 14 24  1  0     0  0
 15 25  1  0     0  0
 16 24  1  0     0  0
 17 18  1  0     0  0
 17 19  2  0     0  0
 18 20  2  0     0  0
 18 23  1  0     0  0
 19 21  1  0     0  0
 20 22  1  0     0  0
 21 22  2  0     0  0
 25 26  1  0     0  0
 26 27  1  0     0  0
 27 28  1  0     0  0
M  END
> <standard_type>
pIC50

> <# Confs.>
25

> <canonical_smiles>
ClC(N=C1CCCC)=C(CC2=NN=NN2)N1CC3=CC=CC=C3C4=NN=NN4

> <standard_relation>
=

> <Publication_ID>
nan

> <predicted_activity_value>
5.0

> <actual_activity_value>
5.920818753952375

> <Compound>
15

> <standard_units>
nM

> hash
13619753703845672401

$$$$
14
XXILIB    08252103513D 0   0.00000     0.00000

 28 31  0     1  0            999 V2000
   -3.5590    0.0029   -1.4785 Cl  0  0  0  0  0  1           0  0  0
    6.3008   -0.3739   -0.4404 N   0  0  0  0  0  3           0  0  0
   -0.6371    3.4657   -3.4876 N   0  0  0  0  0  3           0  0  0
    5.4858   -1.1917    0.2112 N   0  0  0  0  0  3           0  0  0
    0.5392    3.1428   -4.0083 N   0  0  0  0  0  3           0  0  0
    5.6090    0.7639   -0.5852 N   0  0  0  0  0  3           0  0  0
   -1.0752    2.3461   -2.8973 N   0  0  0  0  0  3           0  0  0
    4.2828   -0.5808    0.4807 N   0  0  0  0  0  3           0  0  0
    0.8503    1.8275   -3.7520 N   0  0  0  0  0  3           0  0  0
    0.0000    0.0000    0.0000 N   0  0  0  0  0  3           0  0  0
   -2.0837   -0.0002    0.7714 N   0  0  0  0  0  3           0  0  0
   -2.0990   -0.0049   -0.5984 C   0  0  0  0  0  4           0  0  0
    4.3703    0.6367   -0.0178 C   0  0  0  0  0  4           0  0  0
   -0.1617    1.3424   -3.0616 C   0  0  0  0  0  4           0  0  0
   -0.8123    0.0000    1.1177 C   0  0  0  0  0  4           0  0  0
   -0.8164   -0.0135   -1.1139 C   0  0  0  0  0  4           0  0  0
    3.3744    1.6802   -0.0000 C   0  0  0  0  0  4           0  0  0
    1.9918    1.3966    0.0000 C   0  0  0  0  0  4           0  0  0
    3.8111    3.0146    0.0306 C   0  0  0  0  0  4           0  0  0
    1.0825    2.4694    0.0309 C   0  0  0  0  0  4           0  0  0
    2.8927    4.0631    0.0536 C   0  0  0  0  0  4           0  0  0
    1.5290    3.7910    0.0531 C   0  0  0  0  0  4           0  0  0
    1.4499   -0.0000   -0.0000 C   0  0  0  0  0  4           0  0  0
   -0.3358   -0.0232   -2.5209 C   0  0  0  0  0  4           0  0  0
   -0.3185    0.0095    2.5201 C   0  0  0  0  0  4           0  0  0
   -1.0721    1.0062    3.3959 C   0  0  0  0  0  4           0  0  0
   -0.9771    2.4583    2.9255 C   0  0  0  0  0  4           0  0  0
   -1.7487    3.3938    3.8416 C   0  0  0  0  0  4           0  0  0
  1 12  1  0     0  0
  2  4  2  0     0  0
  2  6  1  0     0  0
  3  5  2  0     0  0
  3  7  1  0     0  0
  4  8  1  0     0  0
  5  9  1  0     0  0
  6 13  1  0     0  0
  7 14  1  0     0  0
  8 13  2  0     0  0
  9 14  2  0     0  0
 10 15  1  0     0  0
 10 16  1  0     0  0
 10 23  1  0     0  0
 11 12  1  0     0  0
 11 15  2  0     0  0
 12 16  2  0     0  0
 13 17  1  0     0  0
 14 24  1  0     0  0
 15 25  1  0     0  0
 16 24  1  0     0  0
 17 18  1  0     0  0
 17 19  2  0     0  0
 18 20  2  0     0  0
 18 23  1  0     0  0
 19 21  1  0     0  0
 20 22  1  0     0  0
 21 22  2  0     0  0
 25 26  1  0     0  0
 26 27  1  0     0  0
 27 28  1  0     0  0
M  END
> <standard_type>
pIC50

> <# Confs.>
25

> <canonical_smiles>
ClC(N=C1CCCC)=C(CC2=NN=NN2)N1CC3=CC=CC=C3C4=NN=NN4

> <standard_relation>
=

> <Publication_ID>
nan

> <predicted_activity_value>
5.0

> <actual_activity_value>
5.920818753952375

> <Compound>
15

> <standard_units>
nM

> hash
13619753703845672401

$$$$
14
XXILIB    08252103513D 0   0.00000     0.00000

 28 31  0     1  0            999 V2000
   -3.5590    0.0029   -1.4785 Cl  0  0  0  0  0  1           0  0  0
    4.7387    0.2323   -3.6049 N   0  0  0  0  0  3           0  0  0
   -0.6371    3.4657   -3.4876 N   0  0  0  0  0  3           0  0  0
    4.4799   -0.8014   -2.8160 N   0  0  0  0  0  3           0  0  0
    0.5392    3.1428   -4.0083 N   0  0  0  0  0  3           0  0  0
    4.2400    1.2952   -2.9601 N   0  0  0  0  0  3           0  0  0
   -1.0752    2.3461   -2.8973 N   0  0  0  0  0  3           0  0  0
    3.8212   -0.4017   -1.6762 N   0  0  0  0  0  3           0  0  0
    0.8503    1.8275   -3.7520 N   0  0  0  0  0  3           0  0  0
    0.0000    0.0000    0.0000 N   0  0  0  0  0  3           0  0  0
   -2.0837   -0.0002    0.7714 N   0  0  0  0  0  3           0  0  0
   -2.0990   -0.0049   -0.5984 C   0  0  0  0  0  4           0  0  0
    3.6781    0.9054   -1.7749 C   0  0  0  0  0  4           0  0  0
   -0.1617    1.3424   -3.0616 C   0  0  0  0  0  4           0  0  0
   -0.8123    0.0000    1.1177 C   0  0  0  0  0  4           0  0  0
   -0.8164   -0.0135   -1.1139 C   0  0  0  0  0  4           0  0  0
    3.0505    1.8059   -0.8388 C   0  0  0  0  0  4           0  0  0
    1.9918    1.3966   -0.0000 C   0  0  0  0  0  4           0  0  0
    3.5280    3.1245   -0.7637 C   0  0  0  0  0  4           0  0  0
    1.4403    2.3305    0.8957 C   0  0  0  0  0  4           0  0  0
    2.9622    4.0362    0.1262 C   0  0  0  0  0  4           0  0  0
    1.9184    3.6399    0.9552 C   0  0  0  0  0  4           0  0  0
    1.4499    0.0000   -0.0000 C   0  0  0  0  0  4           0  0  0
   -0.3358   -0.0232   -2.5209 C   0  0  0  0  0  4           0  0  0
   -0.3185    0.0095    2.5201 C   0  0  0  0  0  4           0  0  0
   -0.1163   -1.3973    3.0756 C   0  0  0  0  0  4           0  0  0
    0.3917   -1.4399    4.5174 C   0  0  0  0  0  4           0  0  0
    0.5700   -2.8684    5.0049 C   0  0  0  0  0  4           0  0  0
  1 12  1  0     0  0
  2  4  2  0     0  0
  2  6  1  0     0  0
  3  5  2  0     0  0
  3  7  1  0     0  0
  4  8  1  0     0  0
  5  9  1  0     0  0
  6 13  1  0     0  0
  7 14  1  0     0  0
  8 13  2  0     0  0
  9 14  2  0     0  0
 10 15  1  0     0  0
 10 16  1  0     0  0
 10 23  1  0     0  0
 11 12  1  0     0  0
 11 15  2  0     0  0
 12 16  2  0     0  0
 13 17  1  0     0  0
 14 24  1  0     0  0
 15 25  1  0     0  0
 16 24  1  0     0  0
 17 18  1  0     0  0
 17 19  2  0     0  0
 18 20  2  0     0  0
 18 23  1  0     0  0
 19 21  1  0     0  0
 20 22  1  0     0  0
 21 22  2  0     0  0
 25 26  1  0     0  0
 26 27  1  0     0  0
 27 28  1  0     0  0
M  END
> <standard_type>
pIC50

> <# Confs.>
25

> <canonical_smiles>
ClC(N=C1CCCC)=C(CC2=NN=NN2)N1CC3=CC=CC=C3C4=NN=NN4

> <standard_relation>
=

> <Publication_ID>
nan

> <predicted_activity_value>
5.0

> <actual_activity_value>
5.920818753952375

> <Compound>
15

> <standard_units>
nM

> hash
13619753703845672401

$$$$
14
XXILIB    08252103513D 0   0.00000     0.00000

 28 31  0     1  0            999 V2000
   -3.5590    0.0029   -1.4785 Cl  0  0  0  0  0  1           0  0  0
    6.3038    0.3848   -0.3633 N   0  0  0  0  0  3           0  0  0
   -0.6371    3.4657   -3.4876 N   0  0  0  0  0  3           0  0  0
    5.4865    1.1822    0.3106 N   0  0  0  0  0  3           0  0  0
    0.5392    3.1428   -4.0083 N   0  0  0  0  0  3           0  0  0
    5.6123   -0.7478   -0.5458 N   0  0  0  0  0  3           0  0  0
   -1.0752    2.3461   -2.8973 N   0  0  0  0  0  3           0  0  0
    4.2823    0.5636    0.5563 N   0  0  0  0  0  3           0  0  0
    0.8503    1.8275   -3.7520 N   0  0  0  0  0  3           0  0  0
    0.0000    0.0000    0.0000 N   0  0  0  0  0  3           0  0  0
   -2.0837   -0.0002    0.7714 N   0  0  0  0  0  3           0  0  0
   -2.0990   -0.0049   -0.5984 C   0  0  0  0  0  4           0  0  0
    4.3703   -0.6367    0.0178 C   0  0  0  0  0  4           0  0  0
   -0.1617    1.3424   -3.0616 C   0  0  0  0  0  4           0  0  0
   -0.8123    0.0000    1.1177 C   0  0  0  0  0  4           0  0  0
   -0.8164   -0.0135   -1.1139 C   0  0  0  0  0  4           0  0  0
    3.3744   -1.6802    0.0000 C   0  0  0  0  0  4           0  0  0
    1.9918   -1.3966    0.0000 C   0  0  0  0  0  4           0  0  0
    3.8111   -3.0146   -0.0306 C   0  0  0  0  0  4           0  0  0
    1.0825   -2.4694   -0.0309 C   0  0  0  0  0  4           0  0  0
    2.8927   -4.0631   -0.0536 C   0  0  0  0  0  4           0  0  0
    1.5290   -3.7910   -0.0531 C   0  0  0  0  0  4           0  0  0
    1.4499    0.0000    0.0000 C   0  0  0  0  0  4           0  0  0
   -0.3358   -0.0232   -2.5209 C   0  0  0  0  0  4           0  0  0
   -0.3185    0.0095    2.5201 C   0  0  0  0  0  4           0  0  0
   -0.1340    1.4237    3.0627 C   0  0  0  0  0  4           0  0  0
    0.3733    1.4858    4.5041 C   0  0  0  0  0  4           0  0  0
    0.5337    2.9208    4.9785 C   0  0  0  0  0  4           0  0  0
  1 12  1  0     0  0
  2  4  2  0     0  0
  2  6  1  0     0  0
  3  5  2  0     0  0
  3  7  1  0     0  0
  4  8  1  0     0  0
  5  9  1  0     0  0
  6 13  1  0     0  0
  7 14  1  0     0  0
  8 13  2  0     0  0
  9 14  2  0     0  0
 10 15  1  0     0  0
 10 16  1  0     0  0
 10 23  1  0     0  0
 11 12  1  0     0  0
 11 15  2  0     0  0
 12 16  2  0     0  0
 13 17  1  0     0  0
 14 24  1  0     0  0
 15 25  1  0     0  0
 16 24  1  0     0  0
 17 18  1  0     0  0
 17 19  2  0     0  0
 18 20  2  0     0  0
 18 23  1  0     0  0
 19 21  1  0     0  0
 20 22  1  0     0  0
 21 22  2  0     0  0
 25 26  1  0     0  0
 26 27  1  0     0  0
 27 28  1  0     0  0
M  END
> <standard_type>
pIC50

> <# Confs.>
25

> <canonical_smiles>
ClC(N=C1CCCC)=C(CC2=NN=NN2)N1CC3=CC=CC=C3C4=NN=NN4

> <standard_relation>
=

> <Publication_ID>
nan

> <predicted_activity_value>
5.0

> <actual_activity_value>
5.920818753952375

> <Compound>
15

> <standard_units>
nM

> hash
13619753703845672401

$$$$
14
XXILIB    08252103513D 0   0.00000     0.00000

 28 31  0     1  0            999 V2000
   -3.5590    0.0029   -1.4785 Cl  0  0  0  0  0  1           0  0  0
    6.3008   -0.3739   -0.4404 N   0  0  0  0  0  3           0  0  0
   -0.6127   -3.5256   -3.4454 N   0  0  0  0  0  3           0  0  0
    5.4858   -1.1917    0.2112 N   0  0  0  0  0  3           0  0  0
    0.5541   -3.1967   -3.9835 N   0  0  0  0  0  3           0  0  0
    5.6090    0.7639   -0.5852 N   0  0  0  0  0  3           0  0  0
   -1.0521   -2.4058   -2.8566 N   0  0  0  0  0  3           0  0  0
    4.2828   -0.5808    0.4807 N   0  0  0  0  0  3           0  0  0
    0.8572   -1.8769   -3.7408 N   0  0  0  0  0  3           0  0  0
    0.0000    0.0000    0.0000 N   0  0  0  0  0  3           0  0  0
   -2.0837   -0.0002    0.7714 N   0  0  0  0  0  3           0  0  0
   -2.0990   -0.0049   -0.5984 C   0  0  0  0  0  4           0  0  0
    4.3703    0.6367   -0.0178 C   0  0  0  0  0  4           0  0  0
   -0.1484   -1.3962   -3.0382 C   0  0  0  0  0  4           0  0  0
   -0.8123    0.0000    1.1177 C   0  0  0  0  0  4           0  0  0
   -0.8164   -0.0135   -1.1139 C   0  0  0  0  0  4           0  0  0
    3.3744    1.6802   -0.0000 C   0  0  0  0  0  4           0  0  0
    1.9918    1.3966    0.0000 C   0  0  0  0  0  4           0  0  0
    3.8111    3.0146    0.0306 C   0  0  0  0  0  4           0  0  0
    1.0825    2.4694    0.0309 C   0  0  0  0  0  4           0  0  0
    2.8927    4.0631    0.0536 C   0  0  0  0  0  4           0  0  0
    1.5290    3.7910    0.0531 C   0  0  0  0  0  4           0  0  0
    1.4499   -0.0000   -0.0000 C   0  0  0  0  0  4           0  0  0
   -0.3358   -0.0232   -2.5209 C   0  0  0  0  0  4           0  0  0
   -0.3185    0.0095    2.5201 C   0  0  0  0  0  4           0  0  0
   -0.1163   -1.3973    3.0756 C   0  0  0  0  0  4           0  0  0
   -1.3825   -2.2546    3.1002 C   0  0  0  0  0  4           0  0  0
   -1.1088   -3.6392    3.6638 C   0  0  0  0  0  4           0  0  0
  1 12  1  0     0  0
  2  4  2  0     0  0
  2  6  1  0     0  0
  3  5  2  0     0  0
  3  7  1  0     0  0
  4  8  1  0     0  0
  5  9  1  0     0  0
  6 13  1  0     0  0
  7 14  1  0     0  0
  8 13  2  0     0  0
  9 14  2  0     0  0
 10 15  1  0     0  0
 10 16  1  0     0  0
 10 23  1  0     0  0
 11 12  1  0     0  0
 11 15  2  0     0  0
 12 16  2  0     0  0
 13 17  1  0     0  0
 14 24  1  0     0  0
 15 25  1  0     0  0
 16 24  1  0     0  0
 17 18  1  0     0  0
 17 19  2  0     0  0
 18 20  2  0     0  0
 18 23  1  0     0  0
 19 21  1  0     0  0
 20 22  1  0     0  0
 21 22  2  0     0  0
 25 26  1  0     0  0
 26 27  1  0     0  0
 27 28  1  0     0  0
M  END
> <standard_type>
pIC50

> <# Confs.>
25

> <canonical_smiles>
ClC(N=C1CCCC)=C(CC2=NN=NN2)N1CC3=CC=CC=C3C4=NN=NN4

> <standard_relation>
=

> <Publication_ID>
nan

> <predicted_activity_value>
5.0

> <actual_activity_value>
5.920818753952375

> <Compound>
15

> <standard_units>
nM

> hash
13619753703845672401

$$$$
14
XXILIB    08252103513D 0   0.00000     0.00000

 28 31  0     1  0            999 V2000
   -3.5590    0.0029   -1.4785 Cl  0  0  0  0  0  1           0  0  0
    6.3038    0.3848   -0.3633 N   0  0  0  0  0  3           0  0  0
   -0.6127   -3.5256   -3.4454 N   0  0  0  0  0  3           0  0  0
    5.4865    1.1822    0.3106 N   0  0  0  0  0  3           0  0  0
    0.5541   -3.1967   -3.9835 N   0  0  0  0  0  3           0  0  0
    5.6123   -0.7478   -0.5458 N   0  0  0  0  0  3           0  0  0
   -1.0521   -2.4058   -2.8566 N   0  0  0  0  0  3           0  0  0
    4.2823    0.5636    0.5563 N   0  0  0  0  0  3           0  0  0
    0.8572   -1.8769   -3.7408 N   0  0  0  0  0  3           0  0  0
    0.0000    0.0000    0.0000 N   0  0  0  0  0  3           0  0  0
   -2.0837   -0.0002    0.7714 N   0  0  0  0  0  3           0  0  0
   -2.0990   -0.0049   -0.5984 C   0  0  0  0  0  4           0  0  0
    4.3703   -0.6367    0.0178 C   0  0  0  0  0  4           0  0  0
   -0.1484   -1.3962   -3.0382 C   0  0  0  0  0  4           0  0  0
   -0.8123    0.0000    1.1177 C   0  0  0  0  0  4           0  0  0
   -0.8164   -0.0135   -1.1139 C   0  0  0  0  0  4           0  0  0
    3.3744   -1.6802    0.0000 C   0  0  0  0  0  4           0  0  0
    1.9918   -1.3966    0.0000 C   0  0  0  0  0  4           0  0  0
    3.8111   -3.0146   -0.0306 C   0  0  0  0  0  4           0  0  0
    1.0825   -2.4694   -0.0309 C   0  0  0  0  0  4           0  0  0
    2.8927   -4.0631   -0.0536 C   0  0  0  0  0  4           0  0  0
    1.5290   -3.7910   -0.0531 C   0  0  0  0  0  4           0  0  0
    1.4499    0.0000    0.0000 C   0  0  0  0  0  4           0  0  0
   -0.3358   -0.0232   -2.5209 C   0  0  0  0  0  4           0  0  0
   -0.3185    0.0095    2.5201 C   0  0  0  0  0  4           0  0  0
   -1.0596   -0.9886    3.4050 C   0  0  0  0  0  4           0  0  0
   -0.9464   -2.4436    2.9479 C   0  0  0  0  0  4           0  0  0
   -1.7062   -3.3804    3.8724 C   0  0  0  0  0  4           0  0  0
  1 12  1  0     0  0
  2  4  2  0     0  0
  2  6  1  0     0  0
  3  5  2  0     0  0
  3  7  1  0     0  0
  4  8  1  0     0  0
  5  9  1  0     0  0
  6 13  1  0     0  0
  7 14  1  0     0  0
  8 13  2  0     0  0
  9 14  2  0     0  0
 10 15  1  0     0  0
 10 16  1  0     0  0
 10 23  1  0     0  0
 11 12  1  0     0  0
 11 15  2  0     0  0
 12 16  2  0     0  0
 13 17  1  0     0  0
 14 24  1  0     0  0
 15 25  1  0     0  0
 16 24  1  0     0  0
 17 18  1  0     0  0
 17 19  2  0     0  0
 18 20  2  0     0  0
 18 23  1  0     0  0
 19 21  1  0     0  0
 20 22  1  0     0  0
 21 22  2  0     0  0
 25 26  1  0     0  0
 26 27  1  0     0  0
 27 28  1  0     0  0
M  END
> <standard_type>
pIC50

> <# Confs.>
25

> <canonical_smiles>
ClC(N=C1CCCC)=C(CC2=NN=NN2)N1CC3=CC=CC=C3C4=NN=NN4

> <standard_relation>
=

> <Publication_ID>
nan

> <predicted_activity_value>
5.0

> <actual_activity_value>
5.920818753952375

> <Compound>
15

> <standard_units>
nM

> hash
13619753703845672401

$$$$
14
XXILIB    08252103513D 0   0.00000     0.00000

 28 31  0     1  0            999 V2000
   -3.5590    0.0029   -1.4785 Cl  0  0  0  0  0  1           0  0  0
    6.3038    0.3848   -0.3633 N   0  0  0  0  0  3           0  0  0
   -0.6371    3.4657   -3.4876 N   0  0  0  0  0  3           0  0  0
    5.4865    1.1822    0.3106 N   0  0  0  0  0  3           0  0  0
    0.5392    3.1428   -4.0083 N   0  0  0  0  0  3           0  0  0
    5.6123   -0.7478   -0.5458 N   0  0  0  0  0  3           0  0  0
   -1.0752    2.3461   -2.8973 N   0  0  0  0  0  3           0  0  0
    4.2823    0.5636    0.5563 N   0  0  0  0  0  3           0  0  0
    0.8503    1.8275   -3.7520 N   0  0  0  0  0  3           0  0  0
    0.0000    0.0000    0.0000 N   0  0  0  0  0  3           0  0  0
   -2.0837   -0.0002    0.7714 N   0  0  0  0  0  3           0  0  0
   -2.0990   -0.0049   -0.5984 C   0  0  0  0  0  4           0  0  0
    4.3703   -0.6367    0.0178 C   0  0  0  0  0  4           0  0  0
   -0.1617    1.3424   -3.0616 C   0  0  0  0  0  4           0  0  0
   -0.8123    0.0000    1.1177 C   0  0  0  0  0  4           0  0  0
   -0.8164   -0.0135   -1.1139 C   0  0  0  0  0  4           0  0  0
    3.3744   -1.6802    0.0000 C   0  0  0  0  0  4           0  0  0
    1.9918   -1.3966    0.0000 C   0  0  0  0  0  4           0  0  0
    3.8111   -3.0146   -0.0306 C   0  0  0  0  0  4           0  0  0
    1.0825   -2.4694   -0.0309 C   0  0  0  0  0  4           0  0  0
    2.8927   -4.0631   -0.0536 C   0  0  0  0  0  4           0  0  0
    1.5290   -3.7910   -0.0531 C   0  0  0  0  0  4           0  0  0
    1.4499    0.0000    0.0000 C   0  0  0  0  0  4           0  0  0
   -0.3358   -0.0232   -2.5209 C   0  0  0  0  0  4           0  0  0
   -0.3185    0.0095    2.5201 C   0  0  0  0  0  4           0  0  0
   -0.1340    1.4237    3.0627 C   0  0  0  0  0  4           0  0  0
   -1.4108    2.2652    3.0796 C   0  0  0  0  0  4           0  0  0
   -1.1545    3.6583    3.6306 C   0  0  0  0  0  4           0  0  0
  1 12  1  0     0  0
  2  4  2  0     0  0
  2  6  1  0     0  0
  3  5  2  0     0  0
  3  7  1  0     0  0
  4  8  1  0     0  0
  5  9  1  0     0  0
  6 13  1  0     0  0
  7 14  1  0     0  0
  8 13  2  0     0  0
  9 14  2  0     0  0
 10 15  1  0     0  0
 10 16  1  0     0  0
 10 23  1  0     0  0
 11 12  1  0     0  0
 11 15  2  0     0  0
 12 16  2  0     0  0
 13 17  1  0     0  0
 14 24  1  0     0  0
 15 25  1  0     0  0
 16 24  1  0     0  0
 17 18  1  0     0  0
 17 19  2  0     0  0
 18 20  2  0     0  0
 18 23  1  0     0  0
 19 21  1  0     0  0
 20 22  1  0     0  0
 21 22  2  0     0  0
 25 26  1  0     0  0
 26 27  1  0     0  0
 27 28  1  0     0  0
M  END
> <standard_type>
pIC50

> <# Confs.>
25

> <canonical_smiles>
ClC(N=C1CCCC)=C(CC2=NN=NN2)N1CC3=CC=CC=C3C4=NN=NN4

> <standard_relation>
=

> <Publication_ID>
nan

> <predicted_activity_value>
5.0

> <actual_activity_value>
5.920818753952375

> <Compound>
15

> <standard_units>
nM

> hash
13619753703845672401

$$$$
14
XXILIB    08252103513D 0   0.00000     0.00000

 28 31  0     1  0            999 V2000
   -3.5590    0.0029   -1.4785 Cl  0  0  0  0  0  1           0  0  0
    6.3038    0.3848   -0.3633 N   0  0  0  0  0  3           0  0  0
   -0.6127   -3.5256   -3.4454 N   0  0  0  0  0  3           0  0  0
    5.4865    1.1822    0.3106 N   0  0  0  0  0  3           0  0  0
    0.5541   -3.1967   -3.9835 N   0  0  0  0  0  3           0  0  0
    5.6123   -0.7478   -0.5458 N   0  0  0  0  0  3           0  0  0
   -1.0521   -2.4058   -2.8566 N   0  0  0  0  0  3           0  0  0
    4.2823    0.5636    0.5563 N   0  0  0  0  0  3           0  0  0
    0.8572   -1.8769   -3.7408 N   0  0  0  0  0  3           0  0  0
    0.0000    0.0000    0.0000 N   0  0  0  0  0  3           0  0  0
   -2.0837   -0.0002    0.7714 N   0  0  0  0  0  3           0  0  0
   -2.0990   -0.0049   -0.5984 C   0  0  0  0  0  4           0  0  0
    4.3703   -0.6367    0.0178 C   0  0  0  0  0  4           0  0  0
   -0.1484   -1.3962   -3.0382 C   0  0  0  0  0  4           0  0  0
   -0.8123    0.0000    1.1177 C   0  0  0  0  0  4           0  0  0
   -0.8164   -0.0135   -1.1139 C   0  0  0  0  0  4           0  0  0
    3.3744   -1.6802    0.0000 C   0  0  0  0  0  4           0  0  0
    1.9918   -1.3966    0.0000 C   0  0  0  0  0  4           0  0  0
    3.8111   -3.0146   -0.0306 C   0  0  0  0  0  4           0  0  0
    1.0825   -2.4694   -0.0309 C   0  0  0  0  0  4           0  0  0
    2.8927   -4.0631   -0.0536 C   0  0  0  0  0  4           0  0  0
    1.5290   -3.7910   -0.0531 C   0  0  0  0  0  4           0  0  0
    1.4499    0.0000    0.0000 C   0  0  0  0  0  4           0  0  0
   -0.3358   -0.0232   -2.5209 C   0  0  0  0  0  4           0  0  0
   -0.3185    0.0095    2.5201 C   0  0  0  0  0  4           0  0  0
   -1.4556    0.0070    3.5377 C   0  0  0  0  0  4           0  0  0
   -0.9973    0.0165    4.9967 C   0  0  0  0  0  4           0  0  0
   -2.1784    0.0135    5.9532 C   0  0  0  0  0  4           0  0  0
  1 12  1  0     0  0
  2  4  2  0     0  0
  2  6  1  0     0  0
  3  5  2  0     0  0
  3  7  1  0     0  0
  4  8  1  0     0  0
  5  9  1  0     0  0
  6 13  1  0     0  0
  7 14  1  0     0  0
  8 13  2  0     0  0
  9 14  2  0     0  0
 10 15  1  0     0  0
 10 16  1  0     0  0
 10 23  1  0     0  0
 11 12  1  0     0  0
 11 15  2  0     0  0
 12 16  2  0     0  0
 13 17  1  0     0  0
 14 24  1  0     0  0
 15 25  1  0     0  0
 16 24  1  0     0  0
 17 18  1  0     0  0
 17 19  2  0     0  0
 18 20  2  0     0  0
 18 23  1  0     0  0
 19 21  1  0     0  0
 20 22  1  0     0  0
 21 22  2  0     0  0
 25 26  1  0     0  0
 26 27  1  0     0  0
 27 28  1  0     0  0
M  END
> <standard_type>
pIC50

> <# Confs.>
25

> <canonical_smiles>
ClC(N=C1CCCC)=C(CC2=NN=NN2)N1CC3=CC=CC=C3C4=NN=NN4

> <standard_relation>
=

> <Publication_ID>
nan

> <predicted_activity_value>
5.0

> <actual_activity_value>
5.920818753952375

> <Compound>
15

> <standard_units>
nM

> hash
13619753703845672401

$$$$
14
XXILIB    08252103513D 0   0.00000     0.00000

 28 31  0     1  0            999 V2000
   -3.5590    0.0029   -1.4785 Cl  0  0  0  0  0  1           0  0  0
    6.3008   -0.3739   -0.4404 N   0  0  0  0  0  3           0  0  0
   -0.6127   -3.5256   -3.4454 N   0  0  0  0  0  3           0  0  0
    5.4858   -1.1917    0.2112 N   0  0  0  0  0  3           0  0  0
    0.5541   -3.1967   -3.9835 N   0  0  0  0  0  3           0  0  0
    5.6090    0.7639   -0.5852 N   0  0  0  0  0  3           0  0  0
   -1.0521   -2.4058   -2.8566 N   0  0  0  0  0  3           0  0  0
    4.2828   -0.5808    0.4807 N   0  0  0  0  0  3           0  0  0
    0.8572   -1.8769   -3.7408 N   0  0  0  0  0  3           0  0  0
    0.0000    0.0000    0.0000 N   0  0  0  0  0  3           0  0  0
   -2.0837   -0.0002    0.7714 N   0  0  0  0  0  3           0  0  0
   -2.0990   -0.0049   -0.5984 C   0  0  0  0  0  4           0  0  0
    4.3703    0.6367   -0.0178 C   0  0  0  0  0  4           0  0  0
   -0.1484   -1.3962   -3.0382 C   0  0  0  0  0  4           0  0  0
   -0.8123    0.0000    1.1177 C   0  0  0  0  0  4           0  0  0
   -0.8164   -0.0135   -1.1139 C   0  0  0  0  0  4           0  0  0
    3.3744    1.6802   -0.0000 C   0  0  0  0  0  4           0  0  0
    1.9918    1.3966    0.0000 C   0  0  0  0  0  4           0  0  0
    3.8111    3.0146    0.0306 C   0  0  0  0  0  4           0  0  0
    1.0825    2.4694    0.0309 C   0  0  0  0  0  4           0  0  0
    2.8927    4.0631    0.0536 C   0  0  0  0  0  4           0  0  0
    1.5290    3.7910    0.0531 C   0  0  0  0  0  4           0  0  0
    1.4499   -0.0000   -0.0000 C   0  0  0  0  0  4           0  0  0
   -0.3358   -0.0232   -2.5209 C   0  0  0  0  0  4           0  0  0
   -0.3185    0.0095    2.5201 C   0  0  0  0  0  4           0  0  0
   -1.4556    0.0070    3.5377 C   0  0  0  0  0  4           0  0  0
   -0.9973    0.0165    4.9967 C   0  0  0  0  0  4           0  0  0
   -2.1784    0.0135    5.9532 C   0  0  0  0  0  4           0  0  0
  1 12  1  0     0  0
  2  4  2  0     0  0
  2  6  1  0     0  0
  3  5  2  0     0  0
  3  7  1  0     0  0
  4  8  1  0     0  0
  5  9  1  0     0  0
  6 13  1  0     0  0
  7 14  1  0     0  0
  8 13  2  0     0  0
  9 14  2  0     0  0
 10 15  1  0     0  0
 10 16  1  0     0  0
 10 23  1  0     0  0
 11 12  1  0     0  0
 11 15  2  0     0  0
 12 16  2  0     0  0
 13 17  1  0     0  0
 14 24  1  0     0  0
 15 25  1  0     0  0
 16 24  1  0     0  0
 17 18  1  0     0  0
 17 19  2  0     0  0
 18 20  2  0     0  0
 18 23  1  0     0  0
 19 21  1  0     0  0
 20 22  1  0     0  0
 21 22  2  0     0  0
 25 26  1  0     0  0
 26 27  1  0     0  0
 27 28  1  0     0  0
M  END
> <standard_type>
pIC50

> <# Confs.>
25

> <canonical_smiles>
ClC(N=C1CCCC)=C(CC2=NN=NN2)N1CC3=CC=CC=C3C4=NN=NN4

> <standard_relation>
=

> <Publication_ID>
nan

> <predicted_activity_value>
5.0

> <actual_activity_value>
5.920818753952375

> <Compound>
15

> <standard_units>
nM

> hash
13619753703845672401

$$$$
14
XXILIB    08252103513D 0   0.00000     0.00000

 28 31  0     1  0            999 V2000
   -3.5590    0.0029   -1.4785 Cl  0  0  0  0  0  1           0  0  0
    6.3038    0.3848   -0.3633 N   0  0  0  0  0  3           0  0  0
   -0.6371    3.4657   -3.4876 N   0  0  0  0  0  3           0  0  0
    5.4865    1.1822    0.3106 N   0  0  0  0  0  3           0  0  0
    0.5392    3.1428   -4.0083 N   0  0  0  0  0  3           0  0  0
    5.6123   -0.7478   -0.5458 N   0  0  0  0  0  3           0  0  0
   -1.0752    2.3461   -2.8973 N   0  0  0  0  0  3           0  0  0
    4.2823    0.5636    0.5563 N   0  0  0  0  0  3           0  0  0
    0.8503    1.8275   -3.7520 N   0  0  0  0  0  3           0  0  0
    0.0000    0.0000    0.0000 N   0  0  0  0  0  3           0  0  0
   -2.0837   -0.0002    0.7714 N   0  0  0  0  0  3           0  0  0
   -2.0990   -0.0049   -0.5984 C   0  0  0  0  0  4           0  0  0
    4.3703   -0.6367    0.0178 C   0  0  0  0  0  4           0  0  0
   -0.1617    1.3424   -3.0616 C   0  0  0  0  0  4           0  0  0
   -0.8123    0.0000    1.1177 C   0  0  0  0  0  4           0  0  0
   -0.8164   -0.0135   -1.1139 C   0  0  0  0  0  4           0  0  0
    3.3744   -1.6802    0.0000 C   0  0  0  0  0  4           0  0  0
    1.9918   -1.3966    0.0000 C   0  0  0  0  0  4           0  0  0
    3.8111   -3.0146   -0.0306 C   0  0  0  0  0  4           0  0  0
    1.0825   -2.4694   -0.0309 C   0  0  0  0  0  4           0  0  0
    2.8927   -4.0631   -0.0536 C   0  0  0  0  0  4           0  0  0
    1.5290   -3.7910   -0.0531 C   0  0  0  0  0  4           0  0  0
    1.4499    0.0000    0.0000 C   0  0  0  0  0  4           0  0  0
   -0.3358   -0.0232   -2.5209 C   0  0  0  0  0  4           0  0  0
   -0.3185    0.0095    2.5201 C   0  0  0  0  0  4           0  0  0
   -1.4556    0.0070    3.5377 C   0  0  0  0  0  4           0  0  0
   -0.9973    0.0165    4.9967 C   0  0  0  0  0  4           0  0  0
   -2.1784    0.0135    5.9532 C   0  0  0  0  0  4           0  0  0
  1 12  1  0     0  0
  2  4  2  0     0  0
  2  6  1  0     0  0
  3  5  2  0     0  0
  3  7  1  0     0  0
  4  8  1  0     0  0
  5  9  1  0     0  0
  6 13  1  0     0  0
  7 14  1  0     0  0
  8 13  2  0     0  0
  9 14  2  0     0  0
 10 15  1  0     0  0
 10 16  1  0     0  0
 10 23  1  0     0  0
 11 12  1  0     0  0
 11 15  2  0     0  0
 12 16  2  0     0  0
 13 17  1  0     0  0
 14 24  1  0     0  0
 15 25  1  0     0  0
 16 24  1  0     0  0
 17 18  1  0     0  0
 17 19  2  0     0  0
 18 20  2  0     0  0
 18 23  1  0     0  0
 19 21  1  0     0  0
 20 22  1  0     0  0
 21 22  2  0     0  0
 25 26  1  0     0  0
 26 27  1  0     0  0
 27 28  1  0     0  0
M  END
> <standard_type>
pIC50

> <# Confs.>
25

> <canonical_smiles>
ClC(N=C1CCCC)=C(CC2=NN=NN2)N1CC3=CC=CC=C3C4=NN=NN4

> <standard_relation>
=

> <Publication_ID>
nan

> <predicted_activity_value>
5.0

> <actual_activity_value>
5.920818753952375

> <Compound>
15

> <standard_units>
nM

> hash
13619753703845672401

$$$$
14
XXILIB    08252103513D 0   0.00000     0.00000

 28 31  0     1  0            999 V2000
   -3.5590    0.0029   -1.4785 Cl  0  0  0  0  0  1           0  0  0
    6.3038    0.3848   -0.3633 N   0  0  0  0  0  3           0  0  0
   -0.6371    3.4657   -3.4876 N   0  0  0  0  0  3           0  0  0
    5.4865    1.1822    0.3106 N   0  0  0  0  0  3           0  0  0
    0.5392    3.1428   -4.0083 N   0  0  0  0  0  3           0  0  0
    5.6123   -0.7478   -0.5458 N   0  0  0  0  0  3           0  0  0
   -1.0752    2.3461   -2.8973 N   0  0  0  0  0  3           0  0  0
    4.2823    0.5636    0.5563 N   0  0  0  0  0  3           0  0  0
    0.8503    1.8275   -3.7520 N   0  0  0  0  0  3           0  0  0
    0.0000    0.0000    0.0000 N   0  0  0  0  0  3           0  0  0
   -2.0837   -0.0002    0.7714 N   0  0  0  0  0  3           0  0  0
   -2.0990   -0.0049   -0.5984 C   0  0  0  0  0  4           0  0  0
    4.3703   -0.6367    0.0178 C   0  0  0  0  0  4           0  0  0
   -0.1617    1.3424   -3.0616 C   0  0  0  0  0  4           0  0  0
   -0.8123    0.0000    1.1177 C   0  0  0  0  0  4           0  0  0
   -0.8164   -0.0135   -1.1139 C   0  0  0  0  0  4           0  0  0
    3.3744   -1.6802    0.0000 C   0  0  0  0  0  4           0  0  0
    1.9918   -1.3966    0.0000 C   0  0  0  0  0  4           0  0  0
    3.8111   -3.0146   -0.0306 C   0  0  0  0  0  4           0  0  0
    1.0825   -2.4694   -0.0309 C   0  0  0  0  0  4           0  0  0
    2.8927   -4.0631   -0.0536 C   0  0  0  0  0  4           0  0  0
    1.5290   -3.7910   -0.0531 C   0  0  0  0  0  4           0  0  0
    1.4499    0.0000    0.0000 C   0  0  0  0  0  4           0  0  0
   -0.3358   -0.0232   -2.5209 C   0  0  0  0  0  4           0  0  0
   -0.3185    0.0095    2.5201 C   0  0  0  0  0  4           0  0  0
   -1.0596   -0.9886    3.4050 C   0  0  0  0  0  4           0  0  0
   -0.9464   -2.4436    2.9479 C   0  0  0  0  0  4           0  0  0
   -1.7062   -3.3804    3.8724 C   0  0  0  0  0  4           0  0  0
  1 12  1  0     0  0
  2  4  2  0     0  0
  2  6  1  0     0  0
  3  5  2  0     0  0
  3  7  1  0     0  0
  4  8  1  0     0  0
  5  9  1  0     0  0
  6 13  1  0     0  0
  7 14  1  0     0  0
  8 13  2  0     0  0
  9 14  2  0     0  0
 10 15  1  0     0  0
 10 16  1  0     0  0
 10 23  1  0     0  0
 11 12  1  0     0  0
 11 15  2  0     0  0
 12 16  2  0     0  0
 13 17  1  0     0  0
 14 24  1  0     0  0
 15 25  1  0     0  0
 16 24  1  0     0  0
 17 18  1  0     0  0
 17 19  2  0     0  0
 18 20  2  0     0  0
 18 23  1  0     0  0
 19 21  1  0     0  0
 20 22  1  0     0  0
 21 22  2  0     0  0
 25 26  1  0     0  0
 26 27  1  0     0  0
 27 28  1  0     0  0
M  END
> <standard_type>
pIC50

> <# Confs.>
25

> <canonical_smiles>
ClC(N=C1CCCC)=C(CC2=NN=NN2)N1CC3=CC=CC=C3C4=NN=NN4

> <standard_relation>
=

> <Publication_ID>
nan

> <predicted_activity_value>
5.0

> <actual_activity_value>
5.920818753952375

> <Compound>
15

> <standard_units>
nM

> hash
13619753703845672401

$$$$
14
XXILIB    08252103513D 0   0.00000     0.00000

 28 31  0     1  0            999 V2000
   -3.5590    0.0029   -1.4785 Cl  0  0  0  0  0  1           0  0  0
    4.7387    0.2323   -3.6049 N   0  0  0  0  0  3           0  0  0
   -0.6977    3.2426   -4.0704 N   0  0  0  0  0  3           0  0  0
    4.4799   -0.8014   -2.8160 N   0  0  0  0  0  3           0  0  0
    0.5586    3.2834   -3.6471 N   0  0  0  0  0  3           0  0  0
    4.2400    1.2952   -2.9601 N   0  0  0  0  0  3           0  0  0
   -1.1483    2.0350   -3.7066 N   0  0  0  0  0  3           0  0  0
    3.8212   -0.4017   -1.6762 N   0  0  0  0  0  3           0  0  0
    0.9074    2.1112   -3.0171 N   0  0  0  0  0  3           0  0  0
    0.0000    0.0000    0.0000 N   0  0  0  0  0  3           0  0  0
   -2.0837   -0.0002    0.7714 N   0  0  0  0  0  3           0  0  0
   -2.0990   -0.0049   -0.5984 C   0  0  0  0  0  4           0  0  0
    3.6781    0.9054   -1.7749 C   0  0  0  0  0  4           0  0  0
   -0.1617    1.3424   -3.0616 C   0  0  0  0  0  4           0  0  0
   -0.8123    0.0000    1.1177 C   0  0  0  0  0  4           0  0  0
   -0.8164   -0.0135   -1.1139 C   0  0  0  0  0  4           0  0  0
    3.0505    1.8059   -0.8388 C   0  0  0  0  0  4           0  0  0
    1.9918    1.3966   -0.0000 C   0  0  0  0  0  4           0  0  0
    3.5280    3.1245   -0.7637 C   0  0  0  0  0  4           0  0  0
    1.4403    2.3305    0.8957 C   0  0  0  0  0  4           0  0  0
    2.9622    4.0362    0.1262 C   0  0  0  0  0  4           0  0  0
    1.9184    3.6399    0.9552 C   0  0  0  0  0  4           0  0  0
    1.4499    0.0000   -0.0000 C   0  0  0  0  0  4           0  0  0
   -0.3358   -0.0232   -2.5209 C   0  0  0  0  0  4           0  0  0
   -0.3185    0.0095    2.5201 C   0  0  0  0  0  4           0  0  0
   -1.0596   -0.9886    3.4050 C   0  0  0  0  0  4           0  0  0
   -0.9464   -2.4436    2.9479 C   0  0  0  0  0  4           0  0  0
    0.4999   -2.9098    2.9213 C   0  0  0  0  0  4           0  0  0
  1 12  1  0     0  0
  2  4  2  0     0  0
  2  6  1  0     0  0
  3  5  2  0     0  0
  3  7  1  0     0  0
  4  8  1  0     0  0
  5  9  1  0     0  0
  6 13  1  0     0  0
  7 14  1  0     0  0
  8 13  2  0     0  0
  9 14  2  0     0  0
 10 15  1  0     0  0
 10 16  1  0     0  0
 10 23  1  0     0  0
 11 12  1  0     0  0
 11 15  2  0     0  0
 12 16  2  0     0  0
 13 17  1  0     0  0
 14 24  1  0     0  0
 15 25  1  0     0  0
 16 24  1  0     0  0
 17 18  1  0     0  0
 17 19  2  0     0  0
 18 20  2  0     0  0
 18 23  1  0     0  0
 19 21  1  0     0  0
 20 22  1  0     0  0
 21 22  2  0     0  0
 25 26  1  0     0  0
 26 27  1  0     0  0
 27 28  1  0     0  0
M  END
> <standard_type>
pIC50

> <# Confs.>
25

> <canonical_smiles>
ClC(N=C1CCCC)=C(CC2=NN=NN2)N1CC3=CC=CC=C3C4=NN=NN4

> <standard_relation>
=

> <Publication_ID>
nan

> <predicted_activity_value>
5.0

> <actual_activity_value>
5.920818753952375

> <Compound>
15

> <standard_units>
nM

> hash
13619753703845672401

$$$$
14
XXILIB    08252103513D 0   0.00000     0.00000

 28 31  0     1  0            999 V2000
   -3.5590    0.0029   -1.4785 Cl  0  0  0  0  0  1           0  0  0
    4.7907   -0.2024   -3.5550 N   0  0  0  0  0  3           0  0  0
   -0.6595   -3.3107   -4.0326 N   0  0  0  0  0  3           0  0  0
    4.5469    0.8175   -2.7438 N   0  0  0  0  0  3           0  0  0
    0.6012   -3.3269   -3.6209 N   0  0  0  0  0  3           0  0  0
    4.2668   -1.2700   -2.9386 N   0  0  0  0  0  3           0  0  0
   -1.1281   -2.1093   -3.6711 N   0  0  0  0  0  3           0  0  0
    3.8723    0.4045   -1.6180 N   0  0  0  0  0  3           0  0  0
    0.9354   -2.1446   -3.0019 N   0  0  0  0  0  3           0  0  0
    0.0000    0.0000    0.0000 N   0  0  0  0  0  3           0  0  0
   -2.0837   -0.0002    0.7714 N   0  0  0  0  0  3           0  0  0
   -2.0990   -0.0049   -0.5984 C   0  0  0  0  0  4           0  0  0
    3.7015   -0.8963   -1.7497 C   0  0  0  0  0  4           0  0  0
   -0.1484   -1.3962   -3.0382 C   0  0  0  0  0  4           0  0  0
   -0.8123    0.0000    1.1177 C   0  0  0  0  0  4           0  0  0
   -0.8164   -0.0135   -1.1139 C   0  0  0  0  0  4           0  0  0
    3.0505   -1.8059   -0.8388 C   0  0  0  0  0  4           0  0  0
    1.9918   -1.3966    0.0000 C   0  0  0  0  0  4           0  0  0
    3.4877   -3.1401   -0.8070 C   0  0  0  0  0  4           0  0  0
    1.3996   -2.3463    0.8520 C   0  0  0  0  0  4           0  0  0
    2.8915   -4.0636    0.0504 C   0  0  0  0  0  4           0  0  0
    1.8484   -3.6671    0.8801 C   0  0  0  0  0  4           0  0  0
    1.4499   -0.0000   -0.0000 C   0  0  0  0  0  4           0  0  0
   -0.3358   -0.0232   -2.5209 C   0  0  0  0  0  4           0  0  0
   -0.3185    0.0095    2.5201 C   0  0  0  0  0  4           0  0  0
   -1.0721    1.0062    3.3959 C   0  0  0  0  0  4           0  0  0
   -0.9771    2.4583    2.9255 C   0  0  0  0  0  4           0  0  0
    0.4633    2.9423    2.8946 C   0  0  0  0  0  4           0  0  0
  1 12  1  0     0  0
  2  4  2  0     0  0
  2  6  1  0     0  0
  3  5  2  0     0  0
  3  7  1  0     0  0
  4  8  1  0     0  0
  5  9  1  0     0  0
  6 13  1  0     0  0
  7 14  1  0     0  0
  8 13  2  0     0  0
  9 14  2  0     0  0
 10 15  1  0     0  0
 10 16  1  0     0  0
 10 23  1  0     0  0
 11 12  1  0     0  0
 11 15  2  0     0  0
 12 16  2  0     0  0
 13 17  1  0     0  0
 14 24  1  0     0  0
 15 25  1  0     0  0
 16 24  1  0     0  0
 17 18  1  0     0  0
 17 19  2  0     0  0
 18 20  2  0     0  0
 18 23  1  0     0  0
 19 21  1  0     0  0
 20 22  1  0     0  0
 21 22  2  0     0  0
 25 26  1  0     0  0
 26 27  1  0     0  0
 27 28  1  0     0  0
M  END
> <standard_type>
pIC50

> <# Confs.>
25

> <canonical_smiles>
ClC(N=C1CCCC)=C(CC2=NN=NN2)N1CC3=CC=CC=C3C4=NN=NN4

> <standard_relation>
=

> <Publication_ID>
nan

> <predicted_activity_value>
5.0

> <actual_activity_value>
5.920818753952375

> <Compound>
15

> <standard_units>
nM

> hash
13619753703845672401

$$$$
15
XXILIB    08252103513D 0   0.00000     0.00000

 38 40  0     1  0            999 V2000
   -6.3234    1.4206   -4.4485 Cl  0  0  0  0  0  1           0  0  0
    6.0732   -1.3866    1.5849 S   0  0  1  0  0  6           0  0  0
    8.6205   -1.4039    1.0809 F   0  0  0  0  0  1           0  0  0
    7.7556   -3.3546    1.5339 F   0  0  0  0  0  1           0  0  0
    7.3837   -2.4226   -0.4029 F   0  0  0  0  0  1           0  0  0
    6.2944   -1.1619    3.0001 O   0  0  0  0  0  2           0  0  0
    4.9303   -2.1524    1.1241 O   0  0  0  0  0  2           0  0  0
    1.9427    0.0000   -2.2467 O   0  0  0  0  0  2           0  0  0
   -6.1536    2.8736   -0.7513 O   0  0  0  0  0  2           0  0  0
   -4.8849   -0.0169   -1.1661 N   0  0  0  0  0  3           0  0  0
   -5.7202   -0.7920   -3.0682 N   0  0  0  0  0  3           0  0  0
    6.1057    0.1108    0.7291 N   0  0  0  0  0  3           0  0  0
    3.6054   -0.0007   -0.6241 N   0  0  0  0  0  3           0  0  0
    1.4083    0.0000    0.0000 N   0  0  0  0  0  3           0  0  0
   -5.7211    0.5796   -3.0917 C   0  0  0  0  0  4           0  0  0
   -5.2108   -1.1365   -1.9044 C   0  0  0  0  0  4           0  0  0
   -5.1951    1.1026   -1.9213 C   0  0  0  0  0  4           0  0  0
    6.0337   -0.0022   -0.7037 C   0  0  0  0  0  4           0  0  0
    4.7981   -0.0016   -1.3730 C   0  0  0  0  0  4           0  0  0
    0.0000    0.0000    0.0000 C   0  0  0  0  0  4           0  0  0
   -2.8126   -0.0124    0.1073 C   0  0  0  0  0  4           0  0  0
    7.2300   -0.0147   -1.4306 C   0  0  0  0  0  4           0  0  0
    4.7817   -0.0261   -2.7742 C   0  0  0  0  0  4           0  0  0
   -0.6593    0.0000    1.2330 C   0  0  0  0  0  4           0  0  0
   -0.7494    0.0011   -1.1808 C   0  0  0  0  0  4           0  0  0
   -2.0550   -0.0051    1.2855 C   0  0  0  0  0  4           0  0  0
   -2.1462   -0.0007   -1.1249 C   0  0  0  0  0  4           0  0  0
    7.2001   -0.0419   -2.8238 C   0  0  0  0  0  4           0  0  0
    5.9788   -0.0465   -3.4935 C   0  0  0  0  0  4           0  0  0
    7.5137   -2.1698    0.9223 C   0  0  1  0  0  4           0  0  0
    2.2843    0.0000   -1.0635 C   0  0  0  0  0  4           0  0  0
   -4.9653    2.4785   -1.4253 C   0  0  0  0  0  4           0  0  0
   -6.0466    4.1914   -0.2284 C   0  0  0  0  0  4           0  0  0
   -4.3097   -0.0079    0.1647 C   0  0  0  0  0  4           0  0  0
   -5.0219   -2.5392   -1.4490 C   0  0  0  0  0  4           0  0  0
   -6.2431   -3.0791   -0.7110 C   0  0  0  0  0  4           0  0  0
   -6.0595   -4.5192   -0.2390 C   0  0  0  0  0  4           0  0  0
   -7.2765   -5.0594    0.4972 C   0  0  0  0  0  4           0  0  0
  1 15  1  0     0  0
  2  6  2  0     0  0
  2  7  2  0     0  0
  2 12  1  0     0  0
  2 30  1  0     0  0
  3 30  1  0     0  0
  4 30  1  0     0  0
  5 30  1  0     0  0
  8 31  2  0     0  0
  9 32  1  0     0  0
  9 33  1  0     0  0
 10 16  1  0     0  0
 10 17  1  0     0  0
 10 34  1  0     0  0
 11 15  1  0     0  0
 11 16  2  0     0  0
 12 18  1  0     0  0
 13 19  1  0     0  0
 13 31  1  0     0  0
 14 20  1  0     0  0
 14 31  1  0     0  0
 15 17  2  0     0  0
 16 35  1  0     0  0
 17 32  1  0     0  0
 18 19  1  0     0  0
 18 22  2  0     0  0
 19 23  2  0     0  0
 20 24  2  0     0  0
 20 25  1  0     0  0
 21 26  2  0     0  0
 21 27  1  0     0  0
 21 34  1  0     0  0
 22 28  1  0     0  0
 23 29  1  0     0  0
 24 26  1  0     0  0
 25 27  2  0     0  0
 28 29  2  0     0  0
 35 36  1  0     0  0
 36 37  1  0     0  0
 37 38  1  0     0  0
M  END
> <standard_type>
pIC50

> <# Confs.>
25

> <canonical_smiles>
CCCCC1=NC(Cl)=C(COC)N1CC2=CC=C(NC(NC3=CC=CC=C3NS(C(F)(F)F)(=O)=O)=O)C=C2

> <standard_relation>
=

> <Publication_ID>
nan

> <predicted_activity_value>
5.0

> <actual_activity_value>
5.619788758288394

> <Compound>
16

> <standard_units>
nM

> hash
3731556818081296511

$$$$
15
XXILIB    08252103513D 0   0.00000     0.00000

 38 40  0     1  0            999 V2000
   -6.2826   -1.4987   -4.4464 Cl  0  0  0  0  0  1           0  0  0
    6.0732   -1.3866    1.5849 S   0  0  1  0  0  6           0  0  0
    8.6205   -1.4039    1.0809 F   0  0  0  0  0  1           0  0  0
    7.7556   -3.3546    1.5339 F   0  0  0  0  0  1           0  0  0
    7.3837   -2.4226   -0.4029 F   0  0  0  0  0  1           0  0  0
    6.2944   -1.1619    3.0001 O   0  0  0  0  0  2           0  0  0
    4.9303   -2.1524    1.1241 O   0  0  0  0  0  2           0  0  0
    1.9427    0.0000   -2.2467 O   0  0  0  0  0  2           0  0  0
   -6.1969   -2.8778   -0.6861 O   0  0  0  0  0  2           0  0  0
   -4.8849   -0.0169   -1.1661 N   0  0  0  0  0  3           0  0  0
   -5.7016    0.7324   -3.0866 N   0  0  0  0  0  3           0  0  0
    6.1057    0.1108    0.7291 N   0  0  0  0  0  3           0  0  0
    3.6054   -0.0007   -0.6241 N   0  0  0  0  0  3           0  0  0
    1.4083    0.0000    0.0000 N   0  0  0  0  0  3           0  0  0
   -5.7113   -0.6393   -3.0877 C   0  0  0  0  0  4           0  0  0
   -5.2048    1.0926   -1.9221 C   0  0  0  0  0  4           0  0  0
   -5.2168   -1.1464   -1.8967 C   0  0  0  0  0  4           0  0  0
    6.0337   -0.0022   -0.7037 C   0  0  0  0  0  4           0  0  0
    4.7981   -0.0016   -1.3730 C   0  0  0  0  0  4           0  0  0
    0.0000    0.0000    0.0000 C   0  0  0  0  0  4           0  0  0
   -2.8126   -0.0124    0.1073 C   0  0  0  0  0  4           0  0  0
    7.2300   -0.0147   -1.4306 C   0  0  0  0  0  4           0  0  0
    4.7817   -0.0261   -2.7742 C   0  0  0  0  0  4           0  0  0
   -0.6593    0.0000    1.2330 C   0  0  0  0  0  4           0  0  0
   -0.7494    0.0011   -1.1808 C   0  0  0  0  0  4           0  0  0
   -2.0550   -0.0051    1.2855 C   0  0  0  0  0  4           0  0  0
   -2.1462   -0.0007   -1.1249 C   0  0  0  0  0  4           0  0  0
    7.2001   -0.0419   -2.8238 C   0  0  0  0  0  4           0  0  0
    5.9788   -0.0465   -3.4935 C   0  0  0  0  0  4           0  0  0
    7.5137   -2.1698    0.9223 C   0  0  1  0  0  4           0  0  0
    2.2843    0.0000   -1.0635 C   0  0  0  0  0  4           0  0  0
   -5.0062   -2.5154   -1.3738 C   0  0  0  0  0  4           0  0  0
   -6.1080   -4.1862   -0.1369 C   0  0  0  0  0  4           0  0  0
   -4.3097   -0.0079    0.1647 C   0  0  0  0  0  4           0  0  0
   -5.0094    2.5014   -1.4884 C   0  0  0  0  0  4           0  0  0
   -6.2286    3.0586   -0.7600 C   0  0  0  0  0  4           0  0  0
   -6.0383    4.5050   -0.3104 C   0  0  0  0  0  4           0  0  0
   -7.2532    5.0625    0.4163 C   0  0  0  0  0  4           0  0  0
  1 15  1  0     0  0
  2  6  2  0     0  0
  2  7  2  0     0  0
  2 12  1  0     0  0
  2 30  1  0     0  0
  3 30  1  0     0  0
  4 30  1  0     0  0
  5 30  1  0     0  0
  8 31  2  0     0  0
  9 32  1  0     0  0
  9 33  1  0     0  0
 10 16  1  0     0  0
 10 17  1  0     0  0
 10 34  1  0     0  0
 11 15  1  0     0  0
 11 16  2  0     0  0
 12 18  1  0     0  0
 13 19  1  0     0  0
 13 31  1  0     0  0
 14 20  1  0     0  0
 14 31  1  0     0  0
 15 17  2  0     0  0
 16 35  1  0     0  0
 17 32  1  0     0  0
 18 19  1  0     0  0
 18 22  2  0     0  0
 19 23  2  0     0  0
 20 24  2  0     0  0
 20 25  1  0     0  0
 21 26  2  0     0  0
 21 27  1  0     0  0
 21 34  1  0     0  0
 22 28  1  0     0  0
 23 29  1  0     0  0
 24 26  1  0     0  0
 25 27  2  0     0  0
 28 29  2  0     0  0
 35 36  1  0     0  0
 36 37  1  0     0  0
 37 38  1  0     0  0
M  END
> <standard_type>
pIC50

> <# Confs.>
25

> <canonical_smiles>
CCCCC1=NC(Cl)=C(COC)N1CC2=CC=C(NC(NC3=CC=CC=C3NS(C(F)(F)F)(=O)=O)=O)C=C2

> <standard_relation>
=

> <Publication_ID>
nan

> <predicted_activity_value>
5.0

> <actual_activity_value>
5.619788758288394

> <Compound>
16

> <standard_units>
nM

> hash
3731556818081296511

$$$$
15
XXILIB    08252103513D 0   0.00000     0.00000

 38 40  0     1  0            999 V2000
   -6.3234    1.4206   -4.4485 Cl  0  0  0  0  0  1           0  0  0
    6.0732   -1.3866    1.5849 S   0  0  1  0  0  6           0  0  0
    8.6205   -1.4039    1.0809 F   0  0  0  0  0  1           0  0  0
    7.7556   -3.3546    1.5339 F   0  0  0  0  0  1           0  0  0
    7.3837   -2.4226   -0.4029 F   0  0  0  0  0  1           0  0  0
    6.2944   -1.1619    3.0001 O   0  0  0  0  0  2           0  0  0
    4.9303   -2.1524    1.1241 O   0  0  0  0  0  2           0  0  0
    1.9427    0.0000   -2.2467 O   0  0  0  0  0  2           0  0  0
   -6.1536    2.8736   -0.7513 O   0  0  0  0  0  2           0  0  0
   -4.8849   -0.0169   -1.1661 N   0  0  0  0  0  3           0  0  0
   -5.7202   -0.7920   -3.0682 N   0  0  0  0  0  3           0  0  0
    6.1057    0.1108    0.7291 N   0  0  0  0  0  3           0  0  0
    3.6054   -0.0007   -0.6241 N   0  0  0  0  0  3           0  0  0
    1.4083    0.0000    0.0000 N   0  0  0  0  0  3           0  0  0
   -5.7211    0.5796   -3.0917 C   0  0  0  0  0  4           0  0  0
   -5.2108   -1.1365   -1.9044 C   0  0  0  0  0  4           0  0  0
   -5.1951    1.1026   -1.9213 C   0  0  0  0  0  4           0  0  0
    6.0337   -0.0022   -0.7037 C   0  0  0  0  0  4           0  0  0
    4.7981   -0.0016   -1.3730 C   0  0  0  0  0  4           0  0  0
    0.0000    0.0000    0.0000 C   0  0  0  0  0  4           0  0  0
   -2.8126   -0.0124    0.1073 C   0  0  0  0  0  4           0  0  0
    7.2300   -0.0147   -1.4306 C   0  0  0  0  0  4           0  0  0
    4.7817   -0.0261   -2.7742 C   0  0  0  0  0  4           0  0  0
   -0.6593    0.0000    1.2330 C   0  0  0  0  0  4           0  0  0
   -0.7494    0.0011   -1.1808 C   0  0  0  0  0  4           0  0  0
   -2.0550   -0.0051    1.2855 C   0  0  0  0  0  4           0  0  0
   -2.1462   -0.0007   -1.1249 C   0  0  0  0  0  4           0  0  0
    7.2001   -0.0419   -2.8238 C   0  0  0  0  0  4           0  0  0
    5.9788   -0.0465   -3.4935 C   0  0  0  0  0  4           0  0  0
    7.5137   -2.1698    0.9223 C   0  0  1  0  0  4           0  0  0
    2.2843    0.0000   -1.0635 C   0  0  0  0  0  4           0  0  0
   -4.9653    2.4785   -1.4253 C   0  0  0  0  0  4           0  0  0
   -6.0466    4.1914   -0.2284 C   0  0  0  0  0  4           0  0  0
   -4.3097   -0.0079    0.1647 C   0  0  0  0  0  4           0  0  0
   -5.0219   -2.5392   -1.4490 C   0  0  0  0  0  4           0  0  0
   -6.2431   -3.0791   -0.7110 C   0  0  0  0  0  4           0  0  0
   -7.5031   -3.0768   -1.5730 C   0  0  0  0  0  4           0  0  0
   -8.7222   -3.6149   -0.8388 C   0  0  0  0  0  4           0  0  0
  1 15  1  0     0  0
  2  6  2  0     0  0
  2  7  2  0     0  0
  2 12  1  0     0  0
  2 30  1  0     0  0
  3 30  1  0     0  0
  4 30  1  0     0  0
  5 30  1  0     0  0
  8 31  2  0     0  0
  9 32  1  0     0  0
  9 33  1  0     0  0
 10 16  1  0     0  0
 10 17  1  0     0  0
 10 34  1  0     0  0
 11 15  1  0     0  0
 11 16  2  0     0  0
 12 18  1  0     0  0
 13 19  1  0     0  0
 13 31  1  0     0  0
 14 20  1  0     0  0
 14 31  1  0     0  0
 15 17  2  0     0  0
 16 35  1  0     0  0
 17 32  1  0     0  0
 18 19  1  0     0  0
 18 22  2  0     0  0
 19 23  2  0     0  0
 20 24  2  0     0  0
 20 25  1  0     0  0
 21 26  2  0     0  0
 21 27  1  0     0  0
 21 34  1  0     0  0
 22 28  1  0     0  0
 23 29  1  0     0  0
 24 26  1  0     0  0
 25 27  2  0     0  0
 28 29  2  0     0  0
 35 36  1  0     0  0
 36 37  1  0     0  0
 37 38  1  0     0  0
M  END
> <standard_type>
pIC50

> <# Confs.>
25

> <canonical_smiles>
CCCCC1=NC(Cl)=C(COC)N1CC2=CC=C(NC(NC3=CC=CC=C3NS(C(F)(F)F)(=O)=O)=O)C=C2

> <standard_relation>
=

> <Publication_ID>
nan

> <predicted_activity_value>
5.0

> <actual_activity_value>
5.619788758288394

> <Compound>
16

> <standard_units>
nM

> hash
3731556818081296511

$$$$
15
XXILIB    08252103513D 0   0.00000     0.00000

 38 40  0     1  0            999 V2000
   -6.2826   -1.4987   -4.4464 Cl  0  0  0  0  0  1           0  0  0
    6.0732   -1.3866    1.5849 S   0  0  1  0  0  6           0  0  0
    8.6205   -1.4039    1.0809 F   0  0  0  0  0  1           0  0  0
    7.7556   -3.3546    1.5339 F   0  0  0  0  0  1           0  0  0
    7.3837   -2.4226   -0.4029 F   0  0  0  0  0  1           0  0  0
    6.2944   -1.1619    3.0001 O   0  0  0  0  0  2           0  0  0
    4.9303   -2.1524    1.1241 O   0  0  0  0  0  2           0  0  0
    1.9427    0.0000   -2.2467 O   0  0  0  0  0  2           0  0  0
   -6.1969   -2.8778   -0.6861 O   0  0  0  0  0  2           0  0  0
   -4.8849   -0.0169   -1.1661 N   0  0  0  0  0  3           0  0  0
   -5.7016    0.7324   -3.0866 N   0  0  0  0  0  3           0  0  0
    6.1057    0.1108    0.7291 N   0  0  0  0  0  3           0  0  0
    3.6054   -0.0007   -0.6241 N   0  0  0  0  0  3           0  0  0
    1.4083    0.0000    0.0000 N   0  0  0  0  0  3           0  0  0
   -5.7113   -0.6393   -3.0877 C   0  0  0  0  0  4           0  0  0
   -5.2048    1.0926   -1.9221 C   0  0  0  0  0  4           0  0  0
   -5.2168   -1.1464   -1.8967 C   0  0  0  0  0  4           0  0  0
    6.0337   -0.0022   -0.7037 C   0  0  0  0  0  4           0  0  0
    4.7981   -0.0016   -1.3730 C   0  0  0  0  0  4           0  0  0
    0.0000    0.0000    0.0000 C   0  0  0  0  0  4           0  0  0
   -2.8126   -0.0124    0.1073 C   0  0  0  0  0  4           0  0  0
    7.2300   -0.0147   -1.4306 C   0  0  0  0  0  4           0  0  0
    4.7817   -0.0261   -2.7742 C   0  0  0  0  0  4           0  0  0
   -0.6593    0.0000    1.2330 C   0  0  0  0  0  4           0  0  0
   -0.7494    0.0011   -1.1808 C   0  0  0  0  0  4           0  0  0
   -2.0550   -0.0051    1.2855 C   0  0  0  0  0  4           0  0  0
   -2.1462   -0.0007   -1.1249 C   0  0  0  0  0  4           0  0  0
    7.2001   -0.0419   -2.8238 C   0  0  0  0  0  4           0  0  0
    5.9788   -0.0465   -3.4935 C   0  0  0  0  0  4           0  0  0
    7.5137   -2.1698    0.9223 C   0  0  1  0  0  4           0  0  0
    2.2843    0.0000   -1.0635 C   0  0  0  0  0  4           0  0  0
   -5.0062   -2.5154   -1.3738 C   0  0  0  0  0  4           0  0  0
   -6.1080   -4.1862   -0.1369 C   0  0  0  0  0  4           0  0  0
   -4.3097   -0.0079    0.1647 C   0  0  0  0  0  4           0  0  0
   -5.0094    2.5014   -1.4884 C   0  0  0  0  0  4           0  0  0
   -5.4608    3.5023   -2.5476 C   0  0  0  0  0  4           0  0  0
   -5.2645    4.9523   -2.1121 C   0  0  0  0  0  4           0  0  0
   -5.7141    5.9521   -3.1671 C   0  0  0  0  0  4           0  0  0
  1 15  1  0     0  0
  2  6  2  0     0  0
  2  7  2  0     0  0
  2 12  1  0     0  0
  2 30  1  0     0  0
  3 30  1  0     0  0
  4 30  1  0     0  0
  5 30  1  0     0  0
  8 31  2  0     0  0
  9 32  1  0     0  0
  9 33  1  0     0  0
 10 16  1  0     0  0
 10 17  1  0     0  0
 10 34  1  0     0  0
 11 15  1  0     0  0
 11 16  2  0     0  0
 12 18  1  0     0  0
 13 19  1  0     0  0
 13 31  1  0     0  0
 14 20  1  0     0  0
 14 31  1  0     0  0
 15 17  2  0     0  0
 16 35  1  0     0  0
 17 32  1  0     0  0
 18 19  1  0     0  0
 18 22  2  0     0  0
 19 23  2  0     0  0
 20 24  2  0     0  0
 20 25  1  0     0  0
 21 26  2  0     0  0
 21 27  1  0     0  0
 21 34  1  0     0  0
 22 28  1  0     0  0
 23 29  1  0     0  0
 24 26  1  0     0  0
 25 27  2  0     0  0
 28 29  2  0     0  0
 35 36  1  0     0  0
 36 37  1  0     0  0
 37 38  1  0     0  0
M  END
> <standard_type>
pIC50

> <# Confs.>
25

> <canonical_smiles>
CCCCC1=NC(Cl)=C(COC)N1CC2=CC=C(NC(NC3=CC=CC=C3NS(C(F)(F)F)(=O)=O)=O)C=C2

> <standard_relation>
=

> <Publication_ID>
nan

> <predicted_activity_value>
5.0

> <actual_activity_value>
5.619788758288394

> <Compound>
16

> <standard_units>
nM

> hash
3731556818081296511

$$$$
15
XXILIB    08252103513D 0   0.00000     0.00000

 38 40  0     1  0            999 V2000
   -6.0724   -4.3228    2.5421 Cl  0  0  0  0  0  1           0  0  0
    6.0732   -1.3866    1.5849 S   0  0  1  0  0  6           0  0  0
    8.5030   -0.7415    2.2353 F   0  0  0  0  0  1           0  0  0
    8.0364   -2.8662    2.3991 F   0  0  0  0  0  1           0  0  0
    8.3282   -1.9644    0.4345 F   0  0  0  0  0  1           0  0  0
    5.5935   -1.1824    2.9378 O   0  0  0  0  0  2           0  0  0
    5.4723   -2.3909    0.7274 O   0  0  0  0  0  2           0  0  0
    1.9427    0.0000   -2.2467 O   0  0  0  0  0  2           0  0  0
   -6.1838   -2.7334   -1.1007 O   0  0  0  0  0  2           0  0  0
   -4.7989   -0.9548    1.1476 N   0  0  0  0  0  3           0  0  0
   -5.4868   -1.7695    3.0918 N   0  0  0  0  0  3           0  0  0
    6.1057    0.1108    0.7291 N   0  0  0  0  0  3           0  0  0
    3.6054   -0.0007   -0.6241 N   0  0  0  0  0  3           0  0  0
    1.4083    0.0000    0.0000 N   0  0  0  0  0  3           0  0  0
   -5.5304   -2.7559    2.1396 C   0  0  0  0  0  4           0  0  0
   -5.0412   -0.6921    2.4807 C   0  0  0  0  0  4           0  0  0
   -5.0966   -2.2869    0.9099 C   0  0  0  0  0  4           0  0  0
    6.0337   -0.0022   -0.7037 C   0  0  0  0  0  4           0  0  0
    4.7981   -0.0016   -1.3730 C   0  0  0  0  0  4           0  0  0
    0.0000    0.0000    0.0000 C   0  0  0  0  0  4           0  0  0
   -2.8126   -0.0124    0.1073 C   0  0  0  0  0  4           0  0  0
    7.2300   -0.0147   -1.4306 C   0  0  0  0  0  4           0  0  0
    4.7817   -0.0261   -2.7742 C   0  0  0  0  0  4           0  0  0
   -0.6593    0.0000    1.2330 C   0  0  0  0  0  4           0  0  0
   -0.7494    0.0011   -1.1808 C   0  0  0  0  0  4           0  0  0
   -2.0550   -0.0051    1.2855 C   0  0  0  0  0  4           0  0  0
   -2.1462   -0.0007   -1.1249 C   0  0  0  0  0  4           0  0  0
    7.2001   -0.0419   -2.8238 C   0  0  0  0  0  4           0  0  0
    5.9788   -0.0465   -3.4935 C   0  0  0  0  0  4           0  0  0
    7.8018   -1.7515    1.6651 C   0  0  1  0  0  4           0  0  0
    2.2843    0.0000   -1.0635 C   0  0  0  0  0  4           0  0  0
   -4.9431   -2.9042   -0.4270 C   0  0  0  0  0  4           0  0  0
   -6.1525   -3.2933   -2.4073 C   0  0  0  0  0  4           0  0  0
   -4.3097   -0.0079    0.1647 C   0  0  0  0  0  4           0  0  0
   -4.8364    0.6258    3.1380 C   0  0  0  0  0  4           0  0  0
   -6.0042    1.0117    4.0406 C   0  0  0  0  0  4           0  0  0
   -5.8039    2.3637    4.7205 C   0  0  0  0  0  4           0  0  0
   -6.9676    2.7503    5.6212 C   0  0  0  0  0  4           0  0  0
  1 15  1  0     0  0
  2  6  2  0     0  0
  2  7  2  0     0  0
  2 12  1  0     0  0
  2 30  1  0     0  0
  3 30  1  0     0  0
  4 30  1  0     0  0
  5 30  1  0     0  0
  8 31  2  0     0  0
  9 32  1  0     0  0
  9 33  1  0     0  0
 10 16  1  0     0  0
 10 17  1  0     0  0
 10 34  1  0     0  0
 11 15  1  0     0  0
 11 16  2  0     0  0
 12 18  1  0     0  0
 13 19  1  0     0  0
 13 31  1  0     0  0
 14 20  1  0     0  0
 14 31  1  0     0  0
 15 17  2  0     0  0
 16 35  1  0     0  0
 17 32  1  0     0  0
 18 19  1  0     0  0
 18 22  2  0     0  0
 19 23  2  0     0  0
 20 24  2  0     0  0
 20 25  1  0     0  0
 21 26  2  0     0  0
 21 27  1  0     0  0
 21 34  1  0     0  0
 22 28  1  0     0  0
 23 29  1  0     0  0
 24 26  1  0     0  0
 25 27  2  0     0  0
 28 29  2  0     0  0
 35 36  1  0     0  0
 36 37  1  0     0  0
 37 38  1  0     0  0
M  END
> <standard_type>
pIC50

> <# Confs.>
25

> <canonical_smiles>
CCCCC1=NC(Cl)=C(COC)N1CC2=CC=C(NC(NC3=CC=CC=C3NS(C(F)(F)F)(=O)=O)=O)C=C2

> <standard_relation>
=

> <Publication_ID>
nan

> <predicted_activity_value>
5.0

> <actual_activity_value>
5.619788758288394

> <Compound>
16

> <standard_units>
nM

> hash
3731556818081296511

$$$$
15
XXILIB    08252103513D 0   0.00000     0.00000

 38 40  0     1  0            999 V2000
   -6.2826   -1.4987   -4.4464 Cl  0  0  0  0  0  1           0  0  0
    6.0732   -1.3866    1.5849 S   0  0  1  0  0  6           0  0  0
    8.6205   -1.4039    1.0809 F   0  0  0  0  0  1           0  0  0
    7.7556   -3.3546    1.5339 F   0  0  0  0  0  1           0  0  0
    7.3837   -2.4226   -0.4029 F   0  0  0  0  0  1           0  0  0
    6.2944   -1.1619    3.0001 O   0  0  0  0  0  2           0  0  0
    4.9303   -2.1524    1.1241 O   0  0  0  0  0  2           0  0  0
    1.9427    0.0000   -2.2467 O   0  0  0  0  0  2           0  0  0
   -6.1969   -2.8778   -0.6861 O   0  0  0  0  0  2           0  0  0
   -4.8849   -0.0169   -1.1661 N   0  0  0  0  0  3           0  0  0
   -5.7016    0.7324   -3.0866 N   0  0  0  0  0  3           0  0  0
    6.1057    0.1108    0.7291 N   0  0  0  0  0  3           0  0  0
    3.6054   -0.0007   -0.6241 N   0  0  0  0  0  3           0  0  0
    1.4083    0.0000    0.0000 N   0  0  0  0  0  3           0  0  0
   -5.7113   -0.6393   -3.0877 C   0  0  0  0  0  4           0  0  0
   -5.2048    1.0926   -1.9221 C   0  0  0  0  0  4           0  0  0
   -5.2168   -1.1464   -1.8967 C   0  0  0  0  0  4           0  0  0
    6.0337   -0.0022   -0.7037 C   0  0  0  0  0  4           0  0  0
    4.7981   -0.0016   -1.3730 C   0  0  0  0  0  4           0  0  0
    0.0000    0.0000    0.0000 C   0  0  0  0  0  4           0  0  0
   -2.8126   -0.0124    0.1073 C   0  0  0  0  0  4           0  0  0
    7.2300   -0.0147   -1.4306 C   0  0  0  0  0  4           0  0  0
    4.7817   -0.0261   -2.7742 C   0  0  0  0  0  4           0  0  0
   -0.6593    0.0000    1.2330 C   0  0  0  0  0  4           0  0  0
   -0.7494    0.0011   -1.1808 C   0  0  0  0  0  4           0  0  0
   -2.0550   -0.0051    1.2855 C   0  0  0  0  0  4           0  0  0
   -2.1462   -0.0007   -1.1249 C   0  0  0  0  0  4           0  0  0
    7.2001   -0.0419   -2.8238 C   0  0  0  0  0  4           0  0  0
    5.9788   -0.0465   -3.4935 C   0  0  0  0  0  4           0  0  0
    7.5137   -2.1698    0.9223 C   0  0  1  0  0  4           0  0  0
    2.2843    0.0000   -1.0635 C   0  0  0  0  0  4           0  0  0
   -5.0062   -2.5154   -1.3738 C   0  0  0  0  0  4           0  0  0
   -6.1080   -4.1862   -0.1369 C   0  0  0  0  0  4           0  0  0
   -4.3097   -0.0079    0.1647 C   0  0  0  0  0  4           0  0  0
   -5.0094    2.5014   -1.4884 C   0  0  0  0  0  4           0  0  0
   -6.2286    3.0586   -0.7600 C   0  0  0  0  0  4           0  0  0
   -7.4879    3.0490   -1.6229 C   0  0  0  0  0  4           0  0  0
   -8.7050    3.6043   -0.8982 C   0  0  0  0  0  4           0  0  0
  1 15  1  0     0  0
  2  6  2  0     0  0
  2  7  2  0     0  0
  2 12  1  0     0  0
  2 30  1  0     0  0
  3 30  1  0     0  0
  4 30  1  0     0  0
  5 30  1  0     0  0
  8 31  2  0     0  0
  9 32  1  0     0  0
  9 33  1  0     0  0
 10 16  1  0     0  0
 10 17  1  0     0  0
 10 34  1  0     0  0
 11 15  1  0     0  0
 11 16  2  0     0  0
 12 18  1  0     0  0
 13 19  1  0     0  0
 13 31  1  0     0  0
 14 20  1  0     0  0
 14 31  1  0     0  0
 15 17  2  0     0  0
 16 35  1  0     0  0
 17 32  1  0     0  0
 18 19  1  0     0  0
 18 22  2  0     0  0
 19 23  2  0     0  0
 20 24  2  0     0  0
 20 25  1  0     0  0
 21 26  2  0     0  0
 21 27  1  0     0  0
 21 34  1  0     0  0
 22 28  1  0     0  0
 23 29  1  0     0  0
 24 26  1  0     0  0
 25 27  2  0     0  0
 28 29  2  0     0  0
 35 36  1  0     0  0
 36 37  1  0     0  0
 37 38  1  0     0  0
M  END
> <standard_type>
pIC50

> <# Confs.>
25

> <canonical_smiles>
CCCCC1=NC(Cl)=C(COC)N1CC2=CC=C(NC(NC3=CC=CC=C3NS(C(F)(F)F)(=O)=O)=O)C=C2

> <standard_relation>
=

> <Publication_ID>
nan

> <predicted_activity_value>
5.0

> <actual_activity_value>
5.619788758288394

> <Compound>
16

> <standard_units>
nM

> hash
3731556818081296511

$$$$
15
XXILIB    08252103513D 0   0.00000     0.00000

 38 40  0     1  0            999 V2000
   -6.0724   -4.3228    2.5421 Cl  0  0  0  0  0  1           0  0  0
    6.0732   -1.3866    1.5849 S   0  0  1  0  0  6           0  0  0
    8.5030   -0.7415    2.2353 F   0  0  0  0  0  1           0  0  0
    8.0364   -2.8662    2.3991 F   0  0  0  0  0  1           0  0  0
    8.3282   -1.9644    0.4345 F   0  0  0  0  0  1           0  0  0
    5.5935   -1.1824    2.9378 O   0  0  0  0  0  2           0  0  0
    5.4723   -2.3909    0.7274 O   0  0  0  0  0  2           0  0  0
    1.9427    0.0000   -2.2467 O   0  0  0  0  0  2           0  0  0
   -6.1838   -2.7334   -1.1007 O   0  0  0  0  0  2           0  0  0
   -4.7989   -0.9548    1.1476 N   0  0  0  0  0  3           0  0  0
   -5.4868   -1.7695    3.0918 N   0  0  0  0  0  3           0  0  0
    6.1057    0.1108    0.7291 N   0  0  0  0  0  3           0  0  0
    3.6054   -0.0007   -0.6241 N   0  0  0  0  0  3           0  0  0
    1.4083    0.0000    0.0000 N   0  0  0  0  0  3           0  0  0
   -5.5304   -2.7559    2.1396 C   0  0  0  0  0  4           0  0  0
   -5.0412   -0.6921    2.4807 C   0  0  0  0  0  4           0  0  0
   -5.0966   -2.2869    0.9099 C   0  0  0  0  0  4           0  0  0
    6.0337   -0.0022   -0.7037 C   0  0  0  0  0  4           0  0  0
    4.7981   -0.0016   -1.3730 C   0  0  0  0  0  4           0  0  0
    0.0000    0.0000    0.0000 C   0  0  0  0  0  4           0  0  0
   -2.8126   -0.0124    0.1073 C   0  0  0  0  0  4           0  0  0
    7.2300   -0.0147   -1.4306 C   0  0  0  0  0  4           0  0  0
    4.7817   -0.0261   -2.7742 C   0  0  0  0  0  4           0  0  0
   -0.6593    0.0000    1.2330 C   0  0  0  0  0  4           0  0  0
   -0.7494    0.0011   -1.1808 C   0  0  0  0  0  4           0  0  0
   -2.0550   -0.0051    1.2855 C   0  0  0  0  0  4           0  0  0
   -2.1462   -0.0007   -1.1249 C   0  0  0  0  0  4           0  0  0
    7.2001   -0.0419   -2.8238 C   0  0  0  0  0  4           0  0  0
    5.9788   -0.0465   -3.4935 C   0  0  0  0  0  4           0  0  0
    7.8018   -1.7515    1.6651 C   0  0  1  0  0  4           0  0  0
    2.2843    0.0000   -1.0635 C   0  0  0  0  0  4           0  0  0
   -4.9431   -2.9042   -0.4270 C   0  0  0  0  0  4           0  0  0
   -6.1525   -3.2933   -2.4073 C   0  0  0  0  0  4           0  0  0
   -4.3097   -0.0079    0.1647 C   0  0  0  0  0  4           0  0  0
   -4.8364    0.6258    3.1380 C   0  0  0  0  0  4           0  0  0
   -6.0042    1.0117    4.0406 C   0  0  0  0  0  4           0  0  0
   -7.3267    1.1132    3.2848 C   0  0  0  0  0  4           0  0  0
   -8.4927    1.4980    4.1834 C   0  0  0  0  0  4           0  0  0
  1 15  1  0     0  0
  2  6  2  0     0  0
  2  7  2  0     0  0
  2 12  1  0     0  0
  2 30  1  0     0  0
  3 30  1  0     0  0
  4 30  1  0     0  0
  5 30  1  0     0  0
  8 31  2  0     0  0
  9 32  1  0     0  0
  9 33  1  0     0  0
 10 16  1  0     0  0
 10 17  1  0     0  0
 10 34  1  0     0  0
 11 15  1  0     0  0
 11 16  2  0     0  0
 12 18  1  0     0  0
 13 19  1  0     0  0
 13 31  1  0     0  0
 14 20  1  0     0  0
 14 31  1  0     0  0
 15 17  2  0     0  0
 16 35  1  0     0  0
 17 32  1  0     0  0
 18 19  1  0     0  0
 18 22  2  0     0  0
 19 23  2  0     0  0
 20 24  2  0     0  0
 20 25  1  0     0  0
 21 26  2  0     0  0
 21 27  1  0     0  0
 21 34  1  0     0  0
 22 28  1  0     0  0
 23 29  1  0     0  0
 24 26  1  0     0  0
 25 27  2  0     0  0
 28 29  2  0     0  0
 35 36  1  0     0  0
 36 37  1  0     0  0
 37 38  1  0     0  0
M  END
> <standard_type>
pIC50

> <# Confs.>
25

> <canonical_smiles>
CCCCC1=NC(Cl)=C(COC)N1CC2=CC=C(NC(NC3=CC=CC=C3NS(C(F)(F)F)(=O)=O)=O)C=C2

> <standard_relation>
=

> <Publication_ID>
nan

> <predicted_activity_value>
5.0

> <actual_activity_value>
5.619788758288394

> <Compound>
16

> <standard_units>
nM

> hash
3731556818081296511

$$$$
15
XXILIB    08252103513D 0   0.00000     0.00000

 38 40  0     1  0            999 V2000
   -6.2826   -1.4987   -4.4464 Cl  0  0  0  0  0  1           0  0  0
    6.0732   -1.3866    1.5849 S   0  0  1  0  0  6           0  0  0
    8.5030   -0.7415    2.2353 F   0  0  0  0  0  1           0  0  0
    8.0364   -2.8662    2.3991 F   0  0  0  0  0  1           0  0  0
    8.3282   -1.9644    0.4345 F   0  0  0  0  0  1           0  0  0
    5.5935   -1.1824    2.9378 O   0  0  0  0  0  2           0  0  0
    5.4723   -2.3909    0.7274 O   0  0  0  0  0  2           0  0  0
    1.9427    0.0000   -2.2467 O   0  0  0  0  0  2           0  0  0
   -6.1969   -2.8778   -0.6861 O   0  0  0  0  0  2           0  0  0
   -4.8849   -0.0169   -1.1661 N   0  0  0  0  0  3           0  0  0
   -5.7016    0.7324   -3.0866 N   0  0  0  0  0  3           0  0  0
    6.1057    0.1108    0.7291 N   0  0  0  0  0  3           0  0  0
    3.6054   -0.0007   -0.6241 N   0  0  0  0  0  3           0  0  0
    1.4083    0.0000    0.0000 N   0  0  0  0  0  3           0  0  0
   -5.7113   -0.6393   -3.0877 C   0  0  0  0  0  4           0  0  0
   -5.2048    1.0926   -1.9221 C   0  0  0  0  0  4           0  0  0
   -5.2168   -1.1464   -1.8967 C   0  0  0  0  0  4           0  0  0
    6.0337   -0.0022   -0.7037 C   0  0  0  0  0  4           0  0  0
    4.7981   -0.0016   -1.3730 C   0  0  0  0  0  4           0  0  0
    0.0000    0.0000    0.0000 C   0  0  0  0  0  4           0  0  0
   -2.8126   -0.0124    0.1073 C   0  0  0  0  0  4           0  0  0
    7.2300   -0.0147   -1.4306 C   0  0  0  0  0  4           0  0  0
    4.7817   -0.0261   -2.7742 C   0  0  0  0  0  4           0  0  0
   -0.6593    0.0000    1.2330 C   0  0  0  0  0  4           0  0  0
   -0.7494    0.0011   -1.1808 C   0  0  0  0  0  4           0  0  0
   -2.0550   -0.0051    1.2855 C   0  0  0  0  0  4           0  0  0
   -2.1462   -0.0007   -1.1249 C   0  0  0  0  0  4           0  0  0
    7.2001   -0.0419   -2.8238 C   0  0  0  0  0  4           0  0  0
    5.9788   -0.0465   -3.4935 C   0  0  0  0  0  4           0  0  0
    7.8018   -1.7515    1.6651 C   0  0  1  0  0  4           0  0  0
    2.2843    0.0000   -1.0635 C   0  0  0  0  0  4           0  0  0
   -5.0062   -2.5154   -1.3738 C   0  0  0  0  0  4           0  0  0
   -6.1080   -4.1862   -0.1369 C   0  0  0  0  0  4           0  0  0
   -4.3097   -0.0079    0.1647 C   0  0  0  0  0  4           0  0  0
   -5.0094    2.5014   -1.4884 C   0  0  0  0  0  4           0  0  0
   -4.3903    3.3649   -2.5832 C   0  0  0  0  0  4           0  0  0
   -4.1854    4.8137   -2.1480 C   0  0  0  0  0  4           0  0  0
   -3.5680    5.6765   -3.2386 C   0  0  0  0  0  4           0  0  0
  1 15  1  0     0  0
  2  6  2  0     0  0
  2  7  2  0     0  0
  2 12  1  0     0  0
  2 30  1  0     0  0
  3 30  1  0     0  0
  4 30  1  0     0  0
  5 30  1  0     0  0
  8 31  2  0     0  0
  9 32  1  0     0  0
  9 33  1  0     0  0
 10 16  1  0     0  0
 10 17  1  0     0  0
 10 34  1  0     0  0
 11 15  1  0     0  0
 11 16  2  0     0  0
 12 18  1  0     0  0
 13 19  1  0     0  0
 13 31  1  0     0  0
 14 20  1  0     0  0
 14 31  1  0     0  0
 15 17  2  0     0  0
 16 35  1  0     0  0
 17 32  1  0     0  0
 18 19  1  0     0  0
 18 22  2  0     0  0
 19 23  2  0     0  0
 20 24  2  0     0  0
 20 25  1  0     0  0
 21 26  2  0     0  0
 21 27  1  0     0  0
 21 34  1  0     0  0
 22 28  1  0     0  0
 23 29  1  0     0  0
 24 26  1  0     0  0
 25 27  2  0     0  0
 28 29  2  0     0  0
 35 36  1  0     0  0
 36 37  1  0     0  0
 37 38  1  0     0  0
M  END
> <standard_type>
pIC50

> <# Confs.>
25

> <canonical_smiles>
CCCCC1=NC(Cl)=C(COC)N1CC2=CC=C(NC(NC3=CC=CC=C3NS(C(F)(F)F)(=O)=O)=O)C=C2

> <standard_relation>
=

> <Publication_ID>
nan

> <predicted_activity_value>
5.0

> <actual_activity_value>
5.619788758288394

> <Compound>
16

> <standard_units>
nM

> hash
3731556818081296511

$$$$
15
XXILIB    08252103513D 0   0.00000     0.00000

 38 40  0     1  0            999 V2000
   -6.3234    1.4206   -4.4485 Cl  0  0  0  0  0  1           0  0  0
    6.0732   -1.3866    1.5849 S   0  0  1  0  0  6           0  0  0
    8.6205   -1.4039    1.0809 F   0  0  0  0  0  1           0  0  0
    7.7556   -3.3546    1.5339 F   0  0  0  0  0  1           0  0  0
    7.3837   -2.4226   -0.4029 F   0  0  0  0  0  1           0  0  0
    6.2944   -1.1619    3.0001 O   0  0  0  0  0  2           0  0  0
    4.9303   -2.1524    1.1241 O   0  0  0  0  0  2           0  0  0
    1.9427    0.0000   -2.2467 O   0  0  0  0  0  2           0  0  0
   -6.1536    2.8736   -0.7513 O   0  0  0  0  0  2           0  0  0
   -4.8849   -0.0169   -1.1661 N   0  0  0  0  0  3           0  0  0
   -5.7202   -0.7920   -3.0682 N   0  0  0  0  0  3           0  0  0
    6.1057    0.1108    0.7291 N   0  0  0  0  0  3           0  0  0
    3.6054   -0.0007   -0.6241 N   0  0  0  0  0  3           0  0  0
    1.4083    0.0000    0.0000 N   0  0  0  0  0  3           0  0  0
   -5.7211    0.5796   -3.0917 C   0  0  0  0  0  4           0  0  0
   -5.2108   -1.1365   -1.9044 C   0  0  0  0  0  4           0  0  0
   -5.1951    1.1026   -1.9213 C   0  0  0  0  0  4           0  0  0
    6.0337   -0.0022   -0.7037 C   0  0  0  0  0  4           0  0  0
    4.7981   -0.0016   -1.3730 C   0  0  0  0  0  4           0  0  0
    0.0000    0.0000    0.0000 C   0  0  0  0  0  4           0  0  0
   -2.8126   -0.0124    0.1073 C   0  0  0  0  0  4           0  0  0
    7.2300   -0.0147   -1.4306 C   0  0  0  0  0  4           0  0  0
    4.7817   -0.0261   -2.7742 C   0  0  0  0  0  4           0  0  0
   -0.6593    0.0000    1.2330 C   0  0  0  0  0  4           0  0  0
   -0.7494    0.0011   -1.1808 C   0  0  0  0  0  4           0  0  0
   -2.0550   -0.0051    1.2855 C   0  0  0  0  0  4           0  0  0
   -2.1462   -0.0007   -1.1249 C   0  0  0  0  0  4           0  0  0
    7.2001   -0.0419   -2.8238 C   0  0  0  0  0  4           0  0  0
    5.9788   -0.0465   -3.4935 C   0  0  0  0  0  4           0  0  0
    7.5137   -2.1698    0.9223 C   0  0  1  0  0  4           0  0  0
    2.2843    0.0000   -1.0635 C   0  0  0  0  0  4           0  0  0
   -4.9653    2.4785   -1.4253 C   0  0  0  0  0  4           0  0  0
   -6.0466    4.1914   -0.2284 C   0  0  0  0  0  4           0  0  0
   -4.3097   -0.0079    0.1647 C   0  0  0  0  0  4           0  0  0
   -5.0219   -2.5392   -1.4490 C   0  0  0  0  0  4           0  0  0
   -5.4790   -3.5544   -2.4920 C   0  0  0  0  0  4           0  0  0
   -5.2893   -4.9983   -2.0341 C   0  0  0  0  0  4           0  0  0
   -5.7446   -6.0123   -3.0731 C   0  0  0  0  0  4           0  0  0
  1 15  1  0     0  0
  2  6  2  0     0  0
  2  7  2  0     0  0
  2 12  1  0     0  0
  2 30  1  0     0  0
  3 30  1  0     0  0
  4 30  1  0     0  0
  5 30  1  0     0  0
  8 31  2  0     0  0
  9 32  1  0     0  0
  9 33  1  0     0  0
 10 16  1  0     0  0
 10 17  1  0     0  0
 10 34  1  0     0  0
 11 15  1  0     0  0
 11 16  2  0     0  0
 12 18  1  0     0  0
 13 19  1  0     0  0
 13 31  1  0     0  0
 14 20  1  0     0  0
 14 31  1  0     0  0
 15 17  2  0     0  0
 16 35  1  0     0  0
 17 32  1  0     0  0
 18 19  1  0     0  0
 18 22  2  0     0  0
 19 23  2  0     0  0
 20 24  2  0     0  0
 20 25  1  0     0  0
 21 26  2  0     0  0
 21 27  1  0     0  0
 21 34  1  0     0  0
 22 28  1  0     0  0
 23 29  1  0     0  0
 24 26  1  0     0  0
 25 27  2  0     0  0
 28 29  2  0     0  0
 35 36  1  0     0  0
 36 37  1  0     0  0
 37 38  1  0     0  0
M  END
> <standard_type>
pIC50

> <# Confs.>
25

> <canonical_smiles>
CCCCC1=NC(Cl)=C(COC)N1CC2=CC=C(NC(NC3=CC=CC=C3NS(C(F)(F)F)(=O)=O)=O)C=C2

> <standard_relation>
=

> <Publication_ID>
nan

> <predicted_activity_value>
5.0

> <actual_activity_value>
5.619788758288394

> <Compound>
16

> <standard_units>
nM

> hash
3731556818081296511

$$$$
15
XXILIB    08252103513D 0   0.00000     0.00000

 38 40  0     1  0            999 V2000
   -6.3234    1.4206   -4.4485 Cl  0  0  0  0  0  1           0  0  0
    5.9109   -0.5425    2.0744 S   0  0  1  0  0  6           0  0  0
    8.4010   -1.1989    1.7409 F   0  0  0  0  0  1           0  0  0
    7.2582   -2.5368    3.0303 F   0  0  0  0  0  1           0  0  0
    6.9601   -2.5897    0.8701 F   0  0  0  0  0  1           0  0  0
    6.2216    0.2885    3.2211 O   0  0  0  0  0  2           0  0  0
    4.6438   -1.2440    1.9870 O   0  0  0  0  0  2           0  0  0
    1.9427    0.0000   -2.2467 O   0  0  0  0  0  2           0  0  0
   -6.1536    2.8736   -0.7513 O   0  0  0  0  0  2           0  0  0
   -4.8849   -0.0169   -1.1661 N   0  0  0  0  0  3           0  0  0
   -5.7202   -0.7920   -3.0682 N   0  0  0  0  0  3           0  0  0
    6.1445    0.3431    0.6126 N   0  0  0  0  0  3           0  0  0
    3.6054   -0.0007   -0.6241 N   0  0  0  0  0  3           0  0  0
    1.4083    0.0000   -0.0000 N   0  0  0  0  0  3           0  0  0
   -5.7211    0.5796   -3.0917 C   0  0  0  0  0  4           0  0  0
   -5.2108   -1.1365   -1.9044 C   0  0  0  0  0  4           0  0  0
   -5.1951    1.1026   -1.9213 C   0  0  0  0  0  4           0  0  0
    5.9978   -0.4232   -0.5966 C   0  0  0  0  0  4           0  0  0
    4.7518   -0.5451   -1.2347 C   0  0  0  0  0  4           0  0  0
    0.0000    0.0000    0.0000 C   0  0  0  0  0  4           0  0  0
   -2.8126   -0.0124    0.1073 C   0  0  0  0  0  4           0  0  0
    7.1469   -0.9677   -1.1822 C   0  0  0  0  0  4           0  0  0
    4.6752   -1.2284   -2.4559 C   0  0  0  0  0  4           0  0  0
   -0.6593    0.0000    1.2330 C   0  0  0  0  0  4           0  0  0
   -0.7494    0.0011   -1.1808 C   0  0  0  0  0  4           0  0  0
   -2.0550   -0.0051    1.2855 C   0  0  0  0  0  4           0  0  0
   -2.1462   -0.0007   -1.1249 C   0  0  0  0  0  4           0  0  0
    7.0568   -1.6475   -2.3956 C   0  0  0  0  0  4           0  0  0
    5.8240   -1.7764   -3.0310 C   0  0  0  0  0  4           0  0  0
    7.1818   -1.7627    1.9207 C   0  0  1  0  0  4           0  0  0
    2.2843    0.0000   -1.0635 C   0  0  0  0  0  4           0  0  0
   -4.9653    2.4785   -1.4253 C   0  0  0  0  0  4           0  0  0
   -6.0466    4.1914   -0.2284 C   0  0  0  0  0  4           0  0  0
   -4.3097   -0.0079    0.1647 C   0  0  0  0  0  4           0  0  0
   -5.0219   -2.5392   -1.4490 C   0  0  0  0  0  4           0  0  0
   -6.2431   -3.0791   -0.7110 C   0  0  0  0  0  4           0  0  0
   -6.0595   -4.5192   -0.2390 C   0  0  0  0  0  4           0  0  0
   -7.2765   -5.0594    0.4972 C   0  0  0  0  0  4           0  0  0
  1 15  1  0     0  0
  2  6  2  0     0  0
  2  7  2  0     0  0
  2 12  1  0     0  0
  2 30  1  0     0  0
  3 30  1  0     0  0
  4 30  1  0     0  0
  5 30  1  0     0  0
  8 31  2  0     0  0
  9 32  1  0     0  0
  9 33  1  0     0  0
 10 16  1  0     0  0
 10 17  1  0     0  0
 10 34  1  0     0  0
 11 15  1  0     0  0
 11 16  2  0     0  0
 12 18  1  0     0  0
 13 19  1  0     0  0
 13 31  1  0     0  0
 14 20  1  0     0  0
 14 31  1  0     0  0
 15 17  2  0     0  0
 16 35  1  0     0  0
 17 32  1  0     0  0
 18 19  1  0     0  0
 18 22  2  0     0  0
 19 23  2  0     0  0
 20 24  2  0     0  0
 20 25  1  0     0  0
 21 26  2  0     0  0
 21 27  1  0     0  0
 21 34  1  0     0  0
 22 28  1  0     0  0
 23 29  1  0     0  0
 24 26  1  0     0  0
 25 27  2  0     0  0
 28 29  2  0     0  0
 35 36  1  0     0  0
 36 37  1  0     0  0
 37 38  1  0     0  0
M  END
> <standard_type>
pIC50

> <# Confs.>
25

> <canonical_smiles>
CCCCC1=NC(Cl)=C(COC)N1CC2=CC=C(NC(NC3=CC=CC=C3NS(C(F)(F)F)(=O)=O)=O)C=C2

> <standard_relation>
=

> <Publication_ID>
nan

> <predicted_activity_value>
5.0

> <actual_activity_value>
5.619788758288394

> <Compound>
16

> <standard_units>
nM

> hash
3731556818081296511

$$$$
15
XXILIB    08252103513D 0   0.00000     0.00000

 38 40  0     1  0            999 V2000
   -6.0724   -4.3228    2.5421 Cl  0  0  0  0  0  1           0  0  0
    6.0732   -1.3866    1.5849 S   0  0  1  0  0  6           0  0  0
    8.6205   -1.4039    1.0809 F   0  0  0  0  0  1           0  0  0
    7.7556   -3.3546    1.5339 F   0  0  0  0  0  1           0  0  0
    7.3837   -2.4226   -0.4029 F   0  0  0  0  0  1           0  0  0
    6.2944   -1.1619    3.0001 O   0  0  0  0  0  2           0  0  0
    4.9303   -2.1524    1.1241 O   0  0  0  0  0  2           0  0  0
    1.9427    0.0000   -2.2467 O   0  0  0  0  0  2           0  0  0
   -6.1838   -2.7334   -1.1007 O   0  0  0  0  0  2           0  0  0
   -4.7989   -0.9548    1.1476 N   0  0  0  0  0  3           0  0  0
   -5.4868   -1.7695    3.0918 N   0  0  0  0  0  3           0  0  0
    6.1057    0.1108    0.7291 N   0  0  0  0  0  3           0  0  0
    3.6054   -0.0007   -0.6241 N   0  0  0  0  0  3           0  0  0
    1.4083    0.0000    0.0000 N   0  0  0  0  0  3           0  0  0
   -5.5304   -2.7559    2.1396 C   0  0  0  0  0  4           0  0  0
   -5.0412   -0.6921    2.4807 C   0  0  0  0  0  4           0  0  0
   -5.0966   -2.2869    0.9099 C   0  0  0  0  0  4           0  0  0
    6.0337   -0.0022   -0.7037 C   0  0  0  0  0  4           0  0  0
    4.7981   -0.0016   -1.3730 C   0  0  0  0  0  4           0  0  0
    0.0000    0.0000    0.0000 C   0  0  0  0  0  4           0  0  0
   -2.8126   -0.0124    0.1073 C   0  0  0  0  0  4           0  0  0
    7.2300   -0.0147   -1.4306 C   0  0  0  0  0  4           0  0  0
    4.7817   -0.0261   -2.7742 C   0  0  0  0  0  4           0  0  0
   -0.6593    0.0000    1.2330 C   0  0  0  0  0  4           0  0  0
   -0.7494    0.0011   -1.1808 C   0  0  0  0  0  4           0  0  0
   -2.0550   -0.0051    1.2855 C   0  0  0  0  0  4           0  0  0
   -2.1462   -0.0007   -1.1249 C   0  0  0  0  0  4           0  0  0
    7.2001   -0.0419   -2.8238 C   0  0  0  0  0  4           0  0  0
    5.9788   -0.0465   -3.4935 C   0  0  0  0  0  4           0  0  0
    7.5137   -2.1698    0.9223 C   0  0  1  0  0  4           0  0  0
    2.2843    0.0000   -1.0635 C   0  0  0  0  0  4           0  0  0
   -4.9431   -2.9042   -0.4270 C   0  0  0  0  0  4           0  0  0
   -6.1525   -3.2933   -2.4073 C   0  0  0  0  0  4           0  0  0
   -4.3097   -0.0079    0.1647 C   0  0  0  0  0  4           0  0  0
   -4.8364    0.6258    3.1380 C   0  0  0  0  0  4           0  0  0
   -6.0839    1.5022    3.0818 C   0  0  0  0  0  4           0  0  0
   -5.8842    2.8581    3.7541 C   0  0  0  0  0  4           0  0  0
   -7.1273    3.7337    3.6991 C   0  0  0  0  0  4           0  0  0
  1 15  1  0     0  0
  2  6  2  0     0  0
  2  7  2  0     0  0
  2 12  1  0     0  0
  2 30  1  0     0  0
  3 30  1  0     0  0
  4 30  1  0     0  0
  5 30  1  0     0  0
  8 31  2  0     0  0
  9 32  1  0     0  0
  9 33  1  0     0  0
 10 16  1  0     0  0
 10 17  1  0     0  0
 10 34  1  0     0  0
 11 15  1  0     0  0
 11 16  2  0     0  0
 12 18  1  0     0  0
 13 19  1  0     0  0
 13 31  1  0     0  0
 14 20  1  0     0  0
 14 31  1  0     0  0
 15 17  2  0     0  0
 16 35  1  0     0  0
 17 32  1  0     0  0
 18 19  1  0     0  0
 18 22  2  0     0  0
 19 23  2  0     0  0
 20 24  2  0     0  0
 20 25  1  0     0  0
 21 26  2  0     0  0
 21 27  1  0     0  0
 21 34  1  0     0  0
 22 28  1  0     0  0
 23 29  1  0     0  0
 24 26  1  0     0  0
 25 27  2  0     0  0
 28 29  2  0     0  0
 35 36  1  0     0  0
 36 37  1  0     0  0
 37 38  1  0     0  0
M  END
> <standard_type>
pIC50

> <# Confs.>
25

> <canonical_smiles>
CCCCC1=NC(Cl)=C(COC)N1CC2=CC=C(NC(NC3=CC=CC=C3NS(C(F)(F)F)(=O)=O)=O)C=C2

> <standard_relation>
=

> <Publication_ID>
nan

> <predicted_activity_value>
5.0

> <actual_activity_value>
5.619788758288394

> <Compound>
16

> <standard_units>
nM

> hash
3731556818081296511

$$$$
15
XXILIB    08252103513D 0   0.00000     0.00000

 38 40  0     1  0            999 V2000
   -6.2826   -1.4987   -4.4464 Cl  0  0  0  0  0  1           0  0  0
    5.9109   -0.5425    2.0744 S   0  0  1  0  0  6           0  0  0
    8.4010   -1.1989    1.7409 F   0  0  0  0  0  1           0  0  0
    7.2582   -2.5368    3.0303 F   0  0  0  0  0  1           0  0  0
    6.9601   -2.5897    0.8701 F   0  0  0  0  0  1           0  0  0
    6.2216    0.2885    3.2211 O   0  0  0  0  0  2           0  0  0
    4.6438   -1.2440    1.9870 O   0  0  0  0  0  2           0  0  0
    1.9427    0.0000   -2.2467 O   0  0  0  0  0  2           0  0  0
   -6.1969   -2.8778   -0.6861 O   0  0  0  0  0  2           0  0  0
   -4.8849   -0.0169   -1.1661 N   0  0  0  0  0  3           0  0  0
   -5.7016    0.7324   -3.0866 N   0  0  0  0  0  3           0  0  0
    6.1445    0.3431    0.6126 N   0  0  0  0  0  3           0  0  0
    3.6054   -0.0007   -0.6241 N   0  0  0  0  0  3           0  0  0
    1.4083    0.0000   -0.0000 N   0  0  0  0  0  3           0  0  0
   -5.7113   -0.6393   -3.0877 C   0  0  0  0  0  4           0  0  0
   -5.2048    1.0926   -1.9221 C   0  0  0  0  0  4           0  0  0
   -5.2168   -1.1464   -1.8967 C   0  0  0  0  0  4           0  0  0
    5.9978   -0.4232   -0.5966 C   0  0  0  0  0  4           0  0  0
    4.7518   -0.5451   -1.2347 C   0  0  0  0  0  4           0  0  0
    0.0000    0.0000    0.0000 C   0  0  0  0  0  4           0  0  0
   -2.8126   -0.0124    0.1073 C   0  0  0  0  0  4           0  0  0
    7.1469   -0.9677   -1.1822 C   0  0  0  0  0  4           0  0  0
    4.6752   -1.2284   -2.4559 C   0  0  0  0  0  4           0  0  0
   -0.6593    0.0000    1.2330 C   0  0  0  0  0  4           0  0  0
   -0.7494    0.0011   -1.1808 C   0  0  0  0  0  4           0  0  0
   -2.0550   -0.0051    1.2855 C   0  0  0  0  0  4           0  0  0
   -2.1462   -0.0007   -1.1249 C   0  0  0  0  0  4           0  0  0
    7.0568   -1.6475   -2.3956 C   0  0  0  0  0  4           0  0  0
    5.8240   -1.7764   -3.0310 C   0  0  0  0  0  4           0  0  0
    7.1818   -1.7627    1.9207 C   0  0  1  0  0  4           0  0  0
    2.2843    0.0000   -1.0635 C   0  0  0  0  0  4           0  0  0
   -5.0062   -2.5154   -1.3738 C   0  0  0  0  0  4           0  0  0
   -6.1080   -4.1862   -0.1369 C   0  0  0  0  0  4           0  0  0
   -4.3097   -0.0079    0.1647 C   0  0  0  0  0  4           0  0  0
   -5.0094    2.5014   -1.4884 C   0  0  0  0  0  4           0  0  0
   -6.2286    3.0586   -0.7600 C   0  0  0  0  0  4           0  0  0
   -6.0383    4.5050   -0.3104 C   0  0  0  0  0  4           0  0  0
   -7.2532    5.0625    0.4163 C   0  0  0  0  0  4           0  0  0
  1 15  1  0     0  0
  2  6  2  0     0  0
  2  7  2  0     0  0
  2 12  1  0     0  0
  2 30  1  0     0  0
  3 30  1  0     0  0
  4 30  1  0     0  0
  5 30  1  0     0  0
  8 31  2  0     0  0
  9 32  1  0     0  0
  9 33  1  0     0  0
 10 16  1  0     0  0
 10 17  1  0     0  0
 10 34  1  0     0  0
 11 15  1  0     0  0
 11 16  2  0     0  0
 12 18  1  0     0  0
 13 19  1  0     0  0
 13 31  1  0     0  0
 14 20  1  0     0  0
 14 31  1  0     0  0
 15 17  2  0     0  0
 16 35  1  0     0  0
 17 32  1  0     0  0
 18 19  1  0     0  0
 18 22  2  0     0  0
 19 23  2  0     0  0
 20 24  2  0     0  0
 20 25  1  0     0  0
 21 26  2  0     0  0
 21 27  1  0     0  0
 21 34  1  0     0  0
 22 28  1  0     0  0
 23 29  1  0     0  0
 24 26  1  0     0  0
 25 27  2  0     0  0
 28 29  2  0     0  0
 35 36  1  0     0  0
 36 37  1  0     0  0
 37 38  1  0     0  0
M  END
> <standard_type>
pIC50

> <# Confs.>
25

> <canonical_smiles>
CCCCC1=NC(Cl)=C(COC)N1CC2=CC=C(NC(NC3=CC=CC=C3NS(C(F)(F)F)(=O)=O)=O)C=C2

> <standard_relation>
=

> <Publication_ID>
nan

> <predicted_activity_value>
5.0

> <actual_activity_value>
5.619788758288394

> <Compound>
16

> <standard_units>
nM

> hash
3731556818081296511

$$$$
15
XXILIB    08252103513D 0   0.00000     0.00000

 38 40  0     1  0            999 V2000
   -6.2826   -1.4987   -4.4464 Cl  0  0  0  0  0  1           0  0  0
    6.0732   -1.3866    1.5849 S   0  0  1  0  0  6           0  0  0
    8.6205   -1.4039    1.0809 F   0  0  0  0  0  1           0  0  0
    7.7556   -3.3546    1.5339 F   0  0  0  0  0  1           0  0  0
    7.3837   -2.4226   -0.4029 F   0  0  0  0  0  1           0  0  0
    6.2944   -1.1619    3.0001 O   0  0  0  0  0  2           0  0  0
    4.9303   -2.1524    1.1241 O   0  0  0  0  0  2           0  0  0
    1.9427    0.0000   -2.2467 O   0  0  0  0  0  2           0  0  0
   -6.1969   -2.8778   -0.6861 O   0  0  0  0  0  2           0  0  0
   -4.8849   -0.0169   -1.1661 N   0  0  0  0  0  3           0  0  0
   -5.7016    0.7324   -3.0866 N   0  0  0  0  0  3           0  0  0
    6.1057    0.1108    0.7291 N   0  0  0  0  0  3           0  0  0
    3.6054   -0.0007   -0.6241 N   0  0  0  0  0  3           0  0  0
    1.4083    0.0000    0.0000 N   0  0  0  0  0  3           0  0  0
   -5.7113   -0.6393   -3.0877 C   0  0  0  0  0  4           0  0  0
   -5.2048    1.0926   -1.9221 C   0  0  0  0  0  4           0  0  0
   -5.2168   -1.1464   -1.8967 C   0  0  0  0  0  4           0  0  0
    6.0337   -0.0022   -0.7037 C   0  0  0  0  0  4           0  0  0
    4.7981   -0.0016   -1.3730 C   0  0  0  0  0  4           0  0  0
    0.0000    0.0000    0.0000 C   0  0  0  0  0  4           0  0  0
   -2.8126   -0.0124    0.1073 C   0  0  0  0  0  4           0  0  0
    7.2300   -0.0147   -1.4306 C   0  0  0  0  0  4           0  0  0
    4.7817   -0.0261   -2.7742 C   0  0  0  0  0  4           0  0  0
   -0.6593    0.0000    1.2330 C   0  0  0  0  0  4           0  0  0
   -0.7494    0.0011   -1.1808 C   0  0  0  0  0  4           0  0  0
   -2.0550   -0.0051    1.2855 C   0  0  0  0  0  4           0  0  0
   -2.1462   -0.0007   -1.1249 C   0  0  0  0  0  4           0  0  0
    7.2001   -0.0419   -2.8238 C   0  0  0  0  0  4           0  0  0
    5.9788   -0.0465   -3.4935 C   0  0  0  0  0  4           0  0  0
    7.5137   -2.1698    0.9223 C   0  0  1  0  0  4           0  0  0
    2.2843    0.0000   -1.0635 C   0  0  0  0  0  4           0  0  0
   -5.0062   -2.5154   -1.3738 C   0  0  0  0  0  4           0  0  0
   -6.1080   -4.1862   -0.1369 C   0  0  0  0  0  4           0  0  0
   -4.3097   -0.0079    0.1647 C   0  0  0  0  0  4           0  0  0
   -5.0094    2.5014   -1.4884 C   0  0  0  0  0  4           0  0  0
   -4.3903    3.3649   -2.5832 C   0  0  0  0  0  4           0  0  0
   -3.0193    2.8618   -3.0280 C   0  0  0  0  0  4           0  0  0
   -2.4002    3.7217   -4.1199 C   0  0  0  0  0  4           0  0  0
  1 15  1  0     0  0
  2  6  2  0     0  0
  2  7  2  0     0  0
  2 12  1  0     0  0
  2 30  1  0     0  0
  3 30  1  0     0  0
  4 30  1  0     0  0
  5 30  1  0     0  0
  8 31  2  0     0  0
  9 32  1  0     0  0
  9 33  1  0     0  0
 10 16  1  0     0  0
 10 17  1  0     0  0
 10 34  1  0     0  0
 11 15  1  0     0  0
 11 16  2  0     0  0
 12 18  1  0     0  0
 13 19  1  0     0  0
 13 31  1  0     0  0
 14 20  1  0     0  0
 14 31  1  0     0  0
 15 17  2  0     0  0
 16 35  1  0     0  0
 17 32  1  0     0  0
 18 19  1  0     0  0
 18 22  2  0     0  0
 19 23  2  0     0  0
 20 24  2  0     0  0
 20 25  1  0     0  0
 21 26  2  0     0  0
 21 27  1  0     0  0
 21 34  1  0     0  0
 22 28  1  0     0  0
 23 29  1  0     0  0
 24 26  1  0     0  0
 25 27  2  0     0  0
 28 29  2  0     0  0
 35 36  1  0     0  0
 36 37  1  0     0  0
 37 38  1  0     0  0
M  END
> <standard_type>
pIC50

> <# Confs.>
25

> <canonical_smiles>
CCCCC1=NC(Cl)=C(COC)N1CC2=CC=C(NC(NC3=CC=CC=C3NS(C(F)(F)F)(=O)=O)=O)C=C2

> <standard_relation>
=

> <Publication_ID>
nan

> <predicted_activity_value>
5.0

> <actual_activity_value>
5.619788758288394

> <Compound>
16

> <standard_units>
nM

> hash
3731556818081296511

$$$$
15
XXILIB    08252103513D 0   0.00000     0.00000

 38 40  0     1  0            999 V2000
   -6.2826   -1.4987   -4.4464 Cl  0  0  0  0  0  1           0  0  0
    6.0732   -1.3866    1.5849 S   0  0  1  0  0  6           0  0  0
    8.5030   -0.7415    2.2353 F   0  0  0  0  0  1           0  0  0
    8.0364   -2.8662    2.3991 F   0  0  0  0  0  1           0  0  0
    8.3282   -1.9644    0.4345 F   0  0  0  0  0  1           0  0  0
    5.5935   -1.1824    2.9378 O   0  0  0  0  0  2           0  0  0
    5.4723   -2.3909    0.7274 O   0  0  0  0  0  2           0  0  0
    1.9427    0.0000   -2.2467 O   0  0  0  0  0  2           0  0  0
   -6.1969   -2.8778   -0.6861 O   0  0  0  0  0  2           0  0  0
   -4.8849   -0.0169   -1.1661 N   0  0  0  0  0  3           0  0  0
   -5.7016    0.7324   -3.0866 N   0  0  0  0  0  3           0  0  0
    6.1057    0.1108    0.7291 N   0  0  0  0  0  3           0  0  0
    3.6054   -0.0007   -0.6241 N   0  0  0  0  0  3           0  0  0
    1.4083    0.0000    0.0000 N   0  0  0  0  0  3           0  0  0
   -5.7113   -0.6393   -3.0877 C   0  0  0  0  0  4           0  0  0
   -5.2048    1.0926   -1.9221 C   0  0  0  0  0  4           0  0  0
   -5.2168   -1.1464   -1.8967 C   0  0  0  0  0  4           0  0  0
    6.0337   -0.0022   -0.7037 C   0  0  0  0  0  4           0  0  0
    4.7981   -0.0016   -1.3730 C   0  0  0  0  0  4           0  0  0
    0.0000    0.0000    0.0000 C   0  0  0  0  0  4           0  0  0
   -2.8126   -0.0124    0.1073 C   0  0  0  0  0  4           0  0  0
    7.2300   -0.0147   -1.4306 C   0  0  0  0  0  4           0  0  0
    4.7817   -0.0261   -2.7742 C   0  0  0  0  0  4           0  0  0
   -0.6593    0.0000    1.2330 C   0  0  0  0  0  4           0  0  0
   -0.7494    0.0011   -1.1808 C   0  0  0  0  0  4           0  0  0
   -2.0550   -0.0051    1.2855 C   0  0  0  0  0  4           0  0  0
   -2.1462   -0.0007   -1.1249 C   0  0  0  0  0  4           0  0  0
    7.2001   -0.0419   -2.8238 C   0  0  0  0  0  4           0  0  0
    5.9788   -0.0465   -3.4935 C   0  0  0  0  0  4           0  0  0
    7.8018   -1.7515    1.6651 C   0  0  1  0  0  4           0  0  0
    2.2843    0.0000   -1.0635 C   0  0  0  0  0  4           0  0  0
   -5.0062   -2.5154   -1.3738 C   0  0  0  0  0  4           0  0  0
   -6.1080   -4.1862   -0.1369 C   0  0  0  0  0  4           0  0  0
   -4.3097   -0.0079    0.1647 C   0  0  0  0  0  4           0  0  0
   -5.0094    2.5014   -1.4884 C   0  0  0  0  0  4           0  0  0
   -6.2286    3.0586   -0.7600 C   0  0  0  0  0  4           0  0  0
   -6.0383    4.5050   -0.3104 C   0  0  0  0  0  4           0  0  0
   -4.8663    4.6776    0.6444 C   0  0  0  0  0  4           0  0  0
  1 15  1  0     0  0
  2  6  2  0     0  0
  2  7  2  0     0  0
  2 12  1  0     0  0
  2 30  1  0     0  0
  3 30  1  0     0  0
  4 30  1  0     0  0
  5 30  1  0     0  0
  8 31  2  0     0  0
  9 32  1  0     0  0
  9 33  1  0     0  0
 10 16  1  0     0  0
 10 17  1  0     0  0
 10 34  1  0     0  0
 11 15  1  0     0  0
 11 16  2  0     0  0
 12 18  1  0     0  0
 13 19  1  0     0  0
 13 31  1  0     0  0
 14 20  1  0     0  0
 14 31  1  0     0  0
 15 17  2  0     0  0
 16 35  1  0     0  0
 17 32  1  0     0  0
 18 19  1  0     0  0
 18 22  2  0     0  0
 19 23  2  0     0  0
 20 24  2  0     0  0
 20 25  1  0     0  0
 21 26  2  0     0  0
 21 27  1  0     0  0
 21 34  1  0     0  0
 22 28  1  0     0  0
 23 29  1  0     0  0
 24 26  1  0     0  0
 25 27  2  0     0  0
 28 29  2  0     0  0
 35 36  1  0     0  0
 36 37  1  0     0  0
 37 38  1  0     0  0
M  END
> <standard_type>
pIC50

> <# Confs.>
25

> <canonical_smiles>
CCCCC1=NC(Cl)=C(COC)N1CC2=CC=C(NC(NC3=CC=CC=C3NS(C(F)(F)F)(=O)=O)=O)C=C2

> <standard_relation>
=

> <Publication_ID>
nan

> <predicted_activity_value>
5.0

> <actual_activity_value>
5.619788758288394

> <Compound>
16

> <standard_units>
nM

> hash
3731556818081296511

$$$$
15
XXILIB    08252103513D 0   0.00000     0.00000

 38 40  0     1  0            999 V2000
   -6.3234    1.4206   -4.4485 Cl  0  0  0  0  0  1           0  0  0
    6.0732   -1.3866    1.5849 S   0  0  1  0  0  6           0  0  0
    8.5030   -0.7415    2.2353 F   0  0  0  0  0  1           0  0  0
    8.0364   -2.8662    2.3991 F   0  0  0  0  0  1           0  0  0
    8.3282   -1.9644    0.4345 F   0  0  0  0  0  1           0  0  0
    5.5935   -1.1824    2.9378 O   0  0  0  0  0  2           0  0  0
    5.4723   -2.3909    0.7274 O   0  0  0  0  0  2           0  0  0
    1.9427    0.0000   -2.2467 O   0  0  0  0  0  2           0  0  0
   -6.1536    2.8736   -0.7513 O   0  0  0  0  0  2           0  0  0
   -4.8849   -0.0169   -1.1661 N   0  0  0  0  0  3           0  0  0
   -5.7202   -0.7920   -3.0682 N   0  0  0  0  0  3           0  0  0
    6.1057    0.1108    0.7291 N   0  0  0  0  0  3           0  0  0
    3.6054   -0.0007   -0.6241 N   0  0  0  0  0  3           0  0  0
    1.4083    0.0000    0.0000 N   0  0  0  0  0  3           0  0  0
   -5.7211    0.5796   -3.0917 C   0  0  0  0  0  4           0  0  0
   -5.2108   -1.1365   -1.9044 C   0  0  0  0  0  4           0  0  0
   -5.1951    1.1026   -1.9213 C   0  0  0  0  0  4           0  0  0
    6.0337   -0.0022   -0.7037 C   0  0  0  0  0  4           0  0  0
    4.7981   -0.0016   -1.3730 C   0  0  0  0  0  4           0  0  0
    0.0000    0.0000    0.0000 C   0  0  0  0  0  4           0  0  0
   -2.8126   -0.0124    0.1073 C   0  0  0  0  0  4           0  0  0
    7.2300   -0.0147   -1.4306 C   0  0  0  0  0  4           0  0  0
    4.7817   -0.0261   -2.7742 C   0  0  0  0  0  4           0  0  0
   -0.6593    0.0000    1.2330 C   0  0  0  0  0  4           0  0  0
   -0.7494    0.0011   -1.1808 C   0  0  0  0  0  4           0  0  0
   -2.0550   -0.0051    1.2855 C   0  0  0  0  0  4           0  0  0
   -2.1462   -0.0007   -1.1249 C   0  0  0  0  0  4           0  0  0
    7.2001   -0.0419   -2.8238 C   0  0  0  0  0  4           0  0  0
    5.9788   -0.0465   -3.4935 C   0  0  0  0  0  4           0  0  0
    7.8018   -1.7515    1.6651 C   0  0  1  0  0  4           0  0  0
    2.2843    0.0000   -1.0635 C   0  0  0  0  0  4           0  0  0
   -4.9653    2.4785   -1.4253 C   0  0  0  0  0  4           0  0  0
   -6.0466    4.1914   -0.2284 C   0  0  0  0  0  4           0  0  0
   -4.3097   -0.0079    0.1647 C   0  0  0  0  0  4           0  0  0
   -5.0219   -2.5392   -1.4490 C   0  0  0  0  0  4           0  0  0
   -4.4078   -3.4227   -2.5306 C   0  0  0  0  0  4           0  0  0
   -4.2096   -4.8655   -2.0730 C   0  0  0  0  0  4           0  0  0
   -3.5973   -5.7482   -3.1504 C   0  0  0  0  0  4           0  0  0
  1 15  1  0     0  0
  2  6  2  0     0  0
  2  7  2  0     0  0
  2 12  1  0     0  0
  2 30  1  0     0  0
  3 30  1  0     0  0
  4 30  1  0     0  0
  5 30  1  0     0  0
  8 31  2  0     0  0
  9 32  1  0     0  0
  9 33  1  0     0  0
 10 16  1  0     0  0
 10 17  1  0     0  0
 10 34  1  0     0  0
 11 15  1  0     0  0
 11 16  2  0     0  0
 12 18  1  0     0  0
 13 19  1  0     0  0
 13 31  1  0     0  0
 14 20  1  0     0  0
 14 31  1  0     0  0
 15 17  2  0     0  0
 16 35  1  0     0  0
 17 32  1  0     0  0
 18 19  1  0     0  0
 18 22  2  0     0  0
 19 23  2  0     0  0
 20 24  2  0     0  0
 20 25  1  0     0  0
 21 26  2  0     0  0
 21 27  1  0     0  0
 21 34  1  0     0  0
 22 28  1  0     0  0
 23 29  1  0     0  0
 24 26  1  0     0  0
 25 27  2  0     0  0
 28 29  2  0     0  0
 35 36  1  0     0  0
 36 37  1  0     0  0
 37 38  1  0     0  0
M  END
> <standard_type>
pIC50

> <# Confs.>
25

> <canonical_smiles>
CCCCC1=NC(Cl)=C(COC)N1CC2=CC=C(NC(NC3=CC=CC=C3NS(C(F)(F)F)(=O)=O)=O)C=C2

> <standard_relation>
=

> <Publication_ID>
nan

> <predicted_activity_value>
5.0

> <actual_activity_value>
5.619788758288394

> <Compound>
16

> <standard_units>
nM

> hash
3731556818081296511

$$$$
15
XXILIB    08252103513D 0   0.00000     0.00000

 38 40  0     1  0            999 V2000
   -6.3234    1.4206   -4.4485 Cl  0  0  0  0  0  1           0  0  0
    6.0732   -1.3866    1.5849 S   0  0  1  0  0  6           0  0  0
    8.5030   -0.7415    2.2353 F   0  0  0  0  0  1           0  0  0
    8.0364   -2.8662    2.3991 F   0  0  0  0  0  1           0  0  0
    8.3282   -1.9644    0.4345 F   0  0  0  0  0  1           0  0  0
    5.5935   -1.1824    2.9378 O   0  0  0  0  0  2           0  0  0
    5.4723   -2.3909    0.7274 O   0  0  0  0  0  2           0  0  0
    1.9427    0.0000   -2.2467 O   0  0  0  0  0  2           0  0  0
   -6.1536    2.8736   -0.7513 O   0  0  0  0  0  2           0  0  0
   -4.8849   -0.0169   -1.1661 N   0  0  0  0  0  3           0  0  0
   -5.7202   -0.7920   -3.0682 N   0  0  0  0  0  3           0  0  0
    6.1057    0.1108    0.7291 N   0  0  0  0  0  3           0  0  0
    3.6054   -0.0007   -0.6241 N   0  0  0  0  0  3           0  0  0
    1.4083    0.0000    0.0000 N   0  0  0  0  0  3           0  0  0
   -5.7211    0.5796   -3.0917 C   0  0  0  0  0  4           0  0  0
   -5.2108   -1.1365   -1.9044 C   0  0  0  0  0  4           0  0  0
   -5.1951    1.1026   -1.9213 C   0  0  0  0  0  4           0  0  0
    6.0337   -0.0022   -0.7037 C   0  0  0  0  0  4           0  0  0
    4.7981   -0.0016   -1.3730 C   0  0  0  0  0  4           0  0  0
    0.0000    0.0000    0.0000 C   0  0  0  0  0  4           0  0  0
   -2.8126   -0.0124    0.1073 C   0  0  0  0  0  4           0  0  0
    7.2300   -0.0147   -1.4306 C   0  0  0  0  0  4           0  0  0
    4.7817   -0.0261   -2.7742 C   0  0  0  0  0  4           0  0  0
   -0.6593    0.0000    1.2330 C   0  0  0  0  0  4           0  0  0
   -0.7494    0.0011   -1.1808 C   0  0  0  0  0  4           0  0  0
   -2.0550   -0.0051    1.2855 C   0  0  0  0  0  4           0  0  0
   -2.1462   -0.0007   -1.1249 C   0  0  0  0  0  4           0  0  0
    7.2001   -0.0419   -2.8238 C   0  0  0  0  0  4           0  0  0
    5.9788   -0.0465   -3.4935 C   0  0  0  0  0  4           0  0  0
    7.8018   -1.7515    1.6651 C   0  0  1  0  0  4           0  0  0
    2.2843    0.0000   -1.0635 C   0  0  0  0  0  4           0  0  0
   -4.9653    2.4785   -1.4253 C   0  0  0  0  0  4           0  0  0
   -6.0466    4.1914   -0.2284 C   0  0  0  0  0  4           0  0  0
   -4.3097   -0.0079    0.1647 C   0  0  0  0  0  4           0  0  0
   -5.0219   -2.5392   -1.4490 C   0  0  0  0  0  4           0  0  0
   -6.2431   -3.0791   -0.7110 C   0  0  0  0  0  4           0  0  0
   -6.0595   -4.5192   -0.2390 C   0  0  0  0  0  4           0  0  0
   -5.8012   -5.4877   -1.3836 C   0  0  0  0  0  4           0  0  0
  1 15  1  0     0  0
  2  6  2  0     0  0
  2  7  2  0     0  0
  2 12  1  0     0  0
  2 30  1  0     0  0
  3 30  1  0     0  0
  4 30  1  0     0  0
  5 30  1  0     0  0
  8 31  2  0     0  0
  9 32  1  0     0  0
  9 33  1  0     0  0
 10 16  1  0     0  0
 10 17  1  0     0  0
 10 34  1  0     0  0
 11 15  1  0     0  0
 11 16  2  0     0  0
 12 18  1  0     0  0
 13 19  1  0     0  0
 13 31  1  0     0  0
 14 20  1  0     0  0
 14 31  1  0     0  0
 15 17  2  0     0  0
 16 35  1  0     0  0
 17 32  1  0     0  0
 18 19  1  0     0  0
 18 22  2  0     0  0
 19 23  2  0     0  0
 20 24  2  0     0  0
 20 25  1  0     0  0
 21 26  2  0     0  0
 21 27  1  0     0  0
 21 34  1  0     0  0
 22 28  1  0     0  0
 23 29  1  0     0  0
 24 26  1  0     0  0
 25 27  2  0     0  0
 28 29  2  0     0  0
 35 36  1  0     0  0
 36 37  1  0     0  0
 37 38  1  0     0  0
M  END
> <standard_type>
pIC50

> <# Confs.>
25

> <canonical_smiles>
CCCCC1=NC(Cl)=C(COC)N1CC2=CC=C(NC(NC3=CC=CC=C3NS(C(F)(F)F)(=O)=O)=O)C=C2

> <standard_relation>
=

> <Publication_ID>
nan

> <predicted_activity_value>
5.0

> <actual_activity_value>
5.619788758288394

> <Compound>
16

> <standard_units>
nM

> hash
3731556818081296511

$$$$
15
XXILIB    08252103513D 0   0.00000     0.00000

 38 40  0     1  0            999 V2000
   -6.3234    1.4206   -4.4485 Cl  0  0  0  0  0  1           0  0  0
    6.0732   -1.3866    1.5849 S   0  0  1  0  0  6           0  0  0
    8.6205   -1.4039    1.0809 F   0  0  0  0  0  1           0  0  0
    7.7556   -3.3546    1.5339 F   0  0  0  0  0  1           0  0  0
    7.3837   -2.4226   -0.4029 F   0  0  0  0  0  1           0  0  0
    6.2944   -1.1619    3.0001 O   0  0  0  0  0  2           0  0  0
    4.9303   -2.1524    1.1241 O   0  0  0  0  0  2           0  0  0
    1.9427    0.0000   -2.2467 O   0  0  0  0  0  2           0  0  0
   -6.1536    2.8736   -0.7513 O   0  0  0  0  0  2           0  0  0
   -4.8849   -0.0169   -1.1661 N   0  0  0  0  0  3           0  0  0
   -5.7202   -0.7920   -3.0682 N   0  0  0  0  0  3           0  0  0
    6.1057    0.1108    0.7291 N   0  0  0  0  0  3           0  0  0
    3.6054   -0.0007   -0.6241 N   0  0  0  0  0  3           0  0  0
    1.4083    0.0000    0.0000 N   0  0  0  0  0  3           0  0  0
   -5.7211    0.5796   -3.0917 C   0  0  0  0  0  4           0  0  0
   -5.2108   -1.1365   -1.9044 C   0  0  0  0  0  4           0  0  0
   -5.1951    1.1026   -1.9213 C   0  0  0  0  0  4           0  0  0
    6.0337   -0.0022   -0.7037 C   0  0  0  0  0  4           0  0  0
    4.7981   -0.0016   -1.3730 C   0  0  0  0  0  4           0  0  0
    0.0000    0.0000    0.0000 C   0  0  0  0  0  4           0  0  0
   -2.8126   -0.0124    0.1073 C   0  0  0  0  0  4           0  0  0
    7.2300   -0.0147   -1.4306 C   0  0  0  0  0  4           0  0  0
    4.7817   -0.0261   -2.7742 C   0  0  0  0  0  4           0  0  0
   -0.6593    0.0000    1.2330 C   0  0  0  0  0  4           0  0  0
   -0.7494    0.0011   -1.1808 C   0  0  0  0  0  4           0  0  0
   -2.0550   -0.0051    1.2855 C   0  0  0  0  0  4           0  0  0
   -2.1462   -0.0007   -1.1249 C   0  0  0  0  0  4           0  0  0
    7.2001   -0.0419   -2.8238 C   0  0  0  0  0  4           0  0  0
    5.9788   -0.0465   -3.4935 C   0  0  0  0  0  4           0  0  0
    7.5137   -2.1698    0.9223 C   0  0  1  0  0  4           0  0  0
    2.2843    0.0000   -1.0635 C   0  0  0  0  0  4           0  0  0
   -4.9653    2.4785   -1.4253 C   0  0  0  0  0  4           0  0  0
   -6.0466    4.1914   -0.2284 C   0  0  0  0  0  4           0  0  0
   -4.3097   -0.0079    0.1647 C   0  0  0  0  0  4           0  0  0
   -5.0219   -2.5392   -1.4490 C   0  0  0  0  0  4           0  0  0
   -4.4078   -3.4227   -2.5306 C   0  0  0  0  0  4           0  0  0
   -3.0348   -2.9333   -2.9843 C   0  0  0  0  0  4           0  0  0
   -2.4208   -3.8132   -4.0631 C   0  0  0  0  0  4           0  0  0
  1 15  1  0     0  0
  2  6  2  0     0  0
  2  7  2  0     0  0
  2 12  1  0     0  0
  2 30  1  0     0  0
  3 30  1  0     0  0
  4 30  1  0     0  0
  5 30  1  0     0  0
  8 31  2  0     0  0
  9 32  1  0     0  0
  9 33  1  0     0  0
 10 16  1  0     0  0
 10 17  1  0     0  0
 10 34  1  0     0  0
 11 15  1  0     0  0
 11 16  2  0     0  0
 12 18  1  0     0  0
 13 19  1  0     0  0
 13 31  1  0     0  0
 14 20  1  0     0  0
 14 31  1  0     0  0
 15 17  2  0     0  0
 16 35  1  0     0  0
 17 32  1  0     0  0
 18 19  1  0     0  0
 18 22  2  0     0  0
 19 23  2  0     0  0
 20 24  2  0     0  0
 20 25  1  0     0  0
 21 26  2  0     0  0
 21 27  1  0     0  0
 21 34  1  0     0  0
 22 28  1  0     0  0
 23 29  1  0     0  0
 24 26  1  0     0  0
 25 27  2  0     0  0
 28 29  2  0     0  0
 35 36  1  0     0  0
 36 37  1  0     0  0
 37 38  1  0     0  0
M  END
> <standard_type>
pIC50

> <# Confs.>
25

> <canonical_smiles>
CCCCC1=NC(Cl)=C(COC)N1CC2=CC=C(NC(NC3=CC=CC=C3NS(C(F)(F)F)(=O)=O)=O)C=C2

> <standard_relation>
=

> <Publication_ID>
nan

> <predicted_activity_value>
5.0

> <actual_activity_value>
5.619788758288394

> <Compound>
16

> <standard_units>
nM

> hash
3731556818081296511

$$$$
15
XXILIB    08252103513D 0   0.00000     0.00000

 38 40  0     1  0            999 V2000
   -6.0724   -4.3228    2.5421 Cl  0  0  0  0  0  1           0  0  0
    6.0732   -1.3866    1.5849 S   0  0  1  0  0  6           0  0  0
    8.5030   -0.7415    2.2353 F   0  0  0  0  0  1           0  0  0
    8.0364   -2.8662    2.3991 F   0  0  0  0  0  1           0  0  0
    8.3282   -1.9644    0.4345 F   0  0  0  0  0  1           0  0  0
    5.5935   -1.1824    2.9378 O   0  0  0  0  0  2           0  0  0
    5.4723   -2.3909    0.7274 O   0  0  0  0  0  2           0  0  0
    1.9427    0.0000   -2.2467 O   0  0  0  0  0  2           0  0  0
   -6.1838   -2.7334   -1.1007 O   0  0  0  0  0  2           0  0  0
   -4.7989   -0.9548    1.1476 N   0  0  0  0  0  3           0  0  0
   -5.4868   -1.7695    3.0918 N   0  0  0  0  0  3           0  0  0
    6.1057    0.1108    0.7291 N   0  0  0  0  0  3           0  0  0
    3.6054   -0.0007   -0.6241 N   0  0  0  0  0  3           0  0  0
    1.4083    0.0000    0.0000 N   0  0  0  0  0  3           0  0  0
   -5.5304   -2.7559    2.1396 C   0  0  0  0  0  4           0  0  0
   -5.0412   -0.6921    2.4807 C   0  0  0  0  0  4           0  0  0
   -5.0966   -2.2869    0.9099 C   0  0  0  0  0  4           0  0  0
    6.0337   -0.0022   -0.7037 C   0  0  0  0  0  4           0  0  0
    4.7981   -0.0016   -1.3730 C   0  0  0  0  0  4           0  0  0
    0.0000    0.0000    0.0000 C   0  0  0  0  0  4           0  0  0
   -2.8126   -0.0124    0.1073 C   0  0  0  0  0  4           0  0  0
    7.2300   -0.0147   -1.4306 C   0  0  0  0  0  4           0  0  0
    4.7817   -0.0261   -2.7742 C   0  0  0  0  0  4           0  0  0
   -0.6593    0.0000    1.2330 C   0  0  0  0  0  4           0  0  0
   -0.7494    0.0011   -1.1808 C   0  0  0  0  0  4           0  0  0
   -2.0550   -0.0051    1.2855 C   0  0  0  0  0  4           0  0  0
   -2.1462   -0.0007   -1.1249 C   0  0  0  0  0  4           0  0  0
    7.2001   -0.0419   -2.8238 C   0  0  0  0  0  4           0  0  0
    5.9788   -0.0465   -3.4935 C   0  0  0  0  0  4           0  0  0
    7.8018   -1.7515    1.6651 C   0  0  1  0  0  4           0  0  0
    2.2843    0.0000   -1.0635 C   0  0  0  0  0  4           0  0  0
   -4.9431   -2.9042   -0.4270 C   0  0  0  0  0  4           0  0  0
   -6.1525   -3.2933   -2.4073 C   0  0  0  0  0  4           0  0  0
   -4.3097   -0.0079    0.1647 C   0  0  0  0  0  4           0  0  0
   -4.8364    0.6258    3.1380 C   0  0  0  0  0  4           0  0  0
   -4.1270    0.4995    4.4827 C   0  0  0  0  0  4           0  0  0
   -3.9118    1.8475    5.1661 C   0  0  0  0  0  4           0  0  0
   -3.2044    1.7236    6.5074 C   0  0  0  0  0  4           0  0  0
  1 15  1  0     0  0
  2  6  2  0     0  0
  2  7  2  0     0  0
  2 12  1  0     0  0
  2 30  1  0     0  0
  3 30  1  0     0  0
  4 30  1  0     0  0
  5 30  1  0     0  0
  8 31  2  0     0  0
  9 32  1  0     0  0
  9 33  1  0     0  0
 10 16  1  0     0  0
 10 17  1  0     0  0
 10 34  1  0     0  0
 11 15  1  0     0  0
 11 16  2  0     0  0
 12 18  1  0     0  0
 13 19  1  0     0  0
 13 31  1  0     0  0
 14 20  1  0     0  0
 14 31  1  0     0  0
 15 17  2  0     0  0
 16 35  1  0     0  0
 17 32  1  0     0  0
 18 19  1  0     0  0
 18 22  2  0     0  0
 19 23  2  0     0  0
 20 24  2  0     0  0
 20 25  1  0     0  0
 21 26  2  0     0  0
 21 27  1  0     0  0
 21 34  1  0     0  0
 22 28  1  0     0  0
 23 29  1  0     0  0
 24 26  1  0     0  0
 25 27  2  0     0  0
 28 29  2  0     0  0
 35 36  1  0     0  0
 36 37  1  0     0  0
 37 38  1  0     0  0
M  END
> <standard_type>
pIC50

> <# Confs.>
25

> <canonical_smiles>
CCCCC1=NC(Cl)=C(COC)N1CC2=CC=C(NC(NC3=CC=CC=C3NS(C(F)(F)F)(=O)=O)=O)C=C2

> <standard_relation>
=

> <Publication_ID>
nan

> <predicted_activity_value>
5.0

> <actual_activity_value>
5.619788758288394

> <Compound>
16

> <standard_units>
nM

> hash
3731556818081296511

$$$$
15
XXILIB    08252103513D 0   0.00000     0.00000

 38 40  0     1  0            999 V2000
   -6.2826   -1.4987   -4.4464 Cl  0  0  0  0  0  1           0  0  0
    6.0732   -1.3866    1.5849 S   0  0  1  0  0  6           0  0  0
    8.5030   -0.7415    2.2353 F   0  0  0  0  0  1           0  0  0
    8.0364   -2.8662    2.3991 F   0  0  0  0  0  1           0  0  0
    8.3282   -1.9644    0.4345 F   0  0  0  0  0  1           0  0  0
    5.5935   -1.1824    2.9378 O   0  0  0  0  0  2           0  0  0
    5.4723   -2.3909    0.7274 O   0  0  0  0  0  2           0  0  0
    1.9427    0.0000   -2.2467 O   0  0  0  0  0  2           0  0  0
   -6.1969   -2.8778   -0.6861 O   0  0  0  0  0  2           0  0  0
   -4.8849   -0.0169   -1.1661 N   0  0  0  0  0  3           0  0  0
   -5.7016    0.7324   -3.0866 N   0  0  0  0  0  3           0  0  0
    6.1057    0.1108    0.7291 N   0  0  0  0  0  3           0  0  0
    3.6054   -0.0007   -0.6241 N   0  0  0  0  0  3           0  0  0
    1.4083    0.0000    0.0000 N   0  0  0  0  0  3           0  0  0
   -5.7113   -0.6393   -3.0877 C   0  0  0  0  0  4           0  0  0
   -5.2048    1.0926   -1.9221 C   0  0  0  0  0  4           0  0  0
   -5.2168   -1.1464   -1.8967 C   0  0  0  0  0  4           0  0  0
    6.0337   -0.0022   -0.7037 C   0  0  0  0  0  4           0  0  0
    4.7981   -0.0016   -1.3730 C   0  0  0  0  0  4           0  0  0
    0.0000    0.0000    0.0000 C   0  0  0  0  0  4           0  0  0
   -2.8126   -0.0124    0.1073 C   0  0  0  0  0  4           0  0  0
    7.2300   -0.0147   -1.4306 C   0  0  0  0  0  4           0  0  0
    4.7817   -0.0261   -2.7742 C   0  0  0  0  0  4           0  0  0
   -0.6593    0.0000    1.2330 C   0  0  0  0  0  4           0  0  0
   -0.7494    0.0011   -1.1808 C   0  0  0  0  0  4           0  0  0
   -2.0550   -0.0051    1.2855 C   0  0  0  0  0  4           0  0  0
   -2.1462   -0.0007   -1.1249 C   0  0  0  0  0  4           0  0  0
    7.2001   -0.0419   -2.8238 C   0  0  0  0  0  4           0  0  0
    5.9788   -0.0465   -3.4935 C   0  0  0  0  0  4           0  0  0
    7.8018   -1.7515    1.6651 C   0  0  1  0  0  4           0  0  0
    2.2843    0.0000   -1.0635 C   0  0  0  0  0  4           0  0  0
   -5.0062   -2.5154   -1.3738 C   0  0  0  0  0  4           0  0  0
   -6.1080   -4.1862   -0.1369 C   0  0  0  0  0  4           0  0  0
   -4.3097   -0.0079    0.1647 C   0  0  0  0  0  4           0  0  0
   -5.0094    2.5014   -1.4884 C   0  0  0  0  0  4           0  0  0
   -6.2286    3.0586   -0.7600 C   0  0  0  0  0  4           0  0  0
   -7.4879    3.0490   -1.6229 C   0  0  0  0  0  4           0  0  0
   -7.3426    3.8792   -2.8896 C   0  0  0  0  0  4           0  0  0
  1 15  1  0     0  0
  2  6  2  0     0  0
  2  7  2  0     0  0
  2 12  1  0     0  0
  2 30  1  0     0  0
  3 30  1  0     0  0
  4 30  1  0     0  0
  5 30  1  0     0  0
  8 31  2  0     0  0
  9 32  1  0     0  0
  9 33  1  0     0  0
 10 16  1  0     0  0
 10 17  1  0     0  0
 10 34  1  0     0  0
 11 15  1  0     0  0
 11 16  2  0     0  0
 12 18  1  0     0  0
 13 19  1  0     0  0
 13 31  1  0     0  0
 14 20  1  0     0  0
 14 31  1  0     0  0
 15 17  2  0     0  0
 16 35  1  0     0  0
 17 32  1  0     0  0
 18 19  1  0     0  0
 18 22  2  0     0  0
 19 23  2  0     0  0
 20 24  2  0     0  0
 20 25  1  0     0  0
 21 26  2  0     0  0
 21 27  1  0     0  0
 21 34  1  0     0  0
 22 28  1  0     0  0
 23 29  1  0     0  0
 24 26  1  0     0  0
 25 27  2  0     0  0
 28 29  2  0     0  0
 35 36  1  0     0  0
 36 37  1  0     0  0
 37 38  1  0     0  0
M  END
> <standard_type>
pIC50

> <# Confs.>
25

> <canonical_smiles>
CCCCC1=NC(Cl)=C(COC)N1CC2=CC=C(NC(NC3=CC=CC=C3NS(C(F)(F)F)(=O)=O)=O)C=C2

> <standard_relation>
=

> <Publication_ID>
nan

> <predicted_activity_value>
5.0

> <actual_activity_value>
5.619788758288394

> <Compound>
16

> <standard_units>
nM

> hash
3731556818081296511

$$$$
15
XXILIB    08252103513D 0   0.00000     0.00000

 38 40  0     1  0            999 V2000
   -6.3234    1.4206   -4.4485 Cl  0  0  0  0  0  1           0  0  0
    5.9109   -0.5425    2.0744 S   0  0  1  0  0  6           0  0  0
    8.4010   -1.1989    1.7409 F   0  0  0  0  0  1           0  0  0
    7.2582   -2.5368    3.0303 F   0  0  0  0  0  1           0  0  0
    6.9601   -2.5897    0.8701 F   0  0  0  0  0  1           0  0  0
    6.2216    0.2885    3.2211 O   0  0  0  0  0  2           0  0  0
    4.6438   -1.2440    1.9870 O   0  0  0  0  0  2           0  0  0
    1.9427    0.0000   -2.2467 O   0  0  0  0  0  2           0  0  0
   -6.1536    2.8736   -0.7513 O   0  0  0  0  0  2           0  0  0
   -4.8849   -0.0169   -1.1661 N   0  0  0  0  0  3           0  0  0
   -5.7202   -0.7920   -3.0682 N   0  0  0  0  0  3           0  0  0
    6.1445    0.3431    0.6126 N   0  0  0  0  0  3           0  0  0
    3.6054   -0.0007   -0.6241 N   0  0  0  0  0  3           0  0  0
    1.4083    0.0000   -0.0000 N   0  0  0  0  0  3           0  0  0
   -5.7211    0.5796   -3.0917 C   0  0  0  0  0  4           0  0  0
   -5.2108   -1.1365   -1.9044 C   0  0  0  0  0  4           0  0  0
   -5.1951    1.1026   -1.9213 C   0  0  0  0  0  4           0  0  0
    5.9978   -0.4232   -0.5966 C   0  0  0  0  0  4           0  0  0
    4.7518   -0.5451   -1.2347 C   0  0  0  0  0  4           0  0  0
    0.0000    0.0000    0.0000 C   0  0  0  0  0  4           0  0  0
   -2.8126   -0.0124    0.1073 C   0  0  0  0  0  4           0  0  0
    7.1469   -0.9677   -1.1822 C   0  0  0  0  0  4           0  0  0
    4.6752   -1.2284   -2.4559 C   0  0  0  0  0  4           0  0  0
   -0.6593    0.0000    1.2330 C   0  0  0  0  0  4           0  0  0
   -0.7494    0.0011   -1.1808 C   0  0  0  0  0  4           0  0  0
   -2.0550   -0.0051    1.2855 C   0  0  0  0  0  4           0  0  0
   -2.1462   -0.0007   -1.1249 C   0  0  0  0  0  4           0  0  0
    7.0568   -1.6475   -2.3956 C   0  0  0  0  0  4           0  0  0
    5.8240   -1.7764   -3.0310 C   0  0  0  0  0  4           0  0  0
    7.1818   -1.7627    1.9207 C   0  0  1  0  0  4           0  0  0
    2.2843    0.0000   -1.0635 C   0  0  0  0  0  4           0  0  0
   -4.9653    2.4785   -1.4253 C   0  0  0  0  0  4           0  0  0
   -6.0466    4.1914   -0.2284 C   0  0  0  0  0  4           0  0  0
   -4.3097   -0.0079    0.1647 C   0  0  0  0  0  4           0  0  0
   -5.0219   -2.5392   -1.4490 C   0  0  0  0  0  4           0  0  0
   -6.2431   -3.0791   -0.7110 C   0  0  0  0  0  4           0  0  0
   -7.5031   -3.0768   -1.5730 C   0  0  0  0  0  4           0  0  0
   -8.7222   -3.6149   -0.8388 C   0  0  0  0  0  4           0  0  0
  1 15  1  0     0  0
  2  6  2  0     0  0
  2  7  2  0     0  0
  2 12  1  0     0  0
  2 30  1  0     0  0
  3 30  1  0     0  0
  4 30  1  0     0  0
  5 30  1  0     0  0
  8 31  2  0     0  0
  9 32  1  0     0  0
  9 33  1  0     0  0
 10 16  1  0     0  0
 10 17  1  0     0  0
 10 34  1  0     0  0
 11 15  1  0     0  0
 11 16  2  0     0  0
 12 18  1  0     0  0
 13 19  1  0     0  0
 13 31  1  0     0  0
 14 20  1  0     0  0
 14 31  1  0     0  0
 15 17  2  0     0  0
 16 35  1  0     0  0
 17 32  1  0     0  0
 18 19  1  0     0  0
 18 22  2  0     0  0
 19 23  2  0     0  0
 20 24  2  0     0  0
 20 25  1  0     0  0
 21 26  2  0     0  0
 21 27  1  0     0  0
 21 34  1  0     0  0
 22 28  1  0     0  0
 23 29  1  0     0  0
 24 26  1  0     0  0
 25 27  2  0     0  0
 28 29  2  0     0  0
 35 36  1  0     0  0
 36 37  1  0     0  0
 37 38  1  0     0  0
M  END
> <standard_type>
pIC50

> <# Confs.>
25

> <canonical_smiles>
CCCCC1=NC(Cl)=C(COC)N1CC2=CC=C(NC(NC3=CC=CC=C3NS(C(F)(F)F)(=O)=O)=O)C=C2

> <standard_relation>
=

> <Publication_ID>
nan

> <predicted_activity_value>
5.0

> <actual_activity_value>
5.619788758288394

> <Compound>
16

> <standard_units>
nM

> hash
3731556818081296511

$$$$
15
XXILIB    08252103513D 0   0.00000     0.00000

 38 40  0     1  0            999 V2000
   -6.2826   -1.4987   -4.4464 Cl  0  0  0  0  0  1           0  0  0
    5.9109   -0.5425    2.0744 S   0  0  1  0  0  6           0  0  0
    8.4010   -1.1989    1.7409 F   0  0  0  0  0  1           0  0  0
    7.2582   -2.5368    3.0303 F   0  0  0  0  0  1           0  0  0
    6.9601   -2.5897    0.8701 F   0  0  0  0  0  1           0  0  0
    6.2216    0.2885    3.2211 O   0  0  0  0  0  2           0  0  0
    4.6438   -1.2440    1.9870 O   0  0  0  0  0  2           0  0  0
    1.9427    0.0000   -2.2467 O   0  0  0  0  0  2           0  0  0
   -6.1969   -2.8778   -0.6861 O   0  0  0  0  0  2           0  0  0
   -4.8849   -0.0169   -1.1661 N   0  0  0  0  0  3           0  0  0
   -5.7016    0.7324   -3.0866 N   0  0  0  0  0  3           0  0  0
    6.1445    0.3431    0.6126 N   0  0  0  0  0  3           0  0  0
    3.6054   -0.0007   -0.6241 N   0  0  0  0  0  3           0  0  0
    1.4083    0.0000   -0.0000 N   0  0  0  0  0  3           0  0  0
   -5.7113   -0.6393   -3.0877 C   0  0  0  0  0  4           0  0  0
   -5.2048    1.0926   -1.9221 C   0  0  0  0  0  4           0  0  0
   -5.2168   -1.1464   -1.8967 C   0  0  0  0  0  4           0  0  0
    5.9978   -0.4232   -0.5966 C   0  0  0  0  0  4           0  0  0
    4.7518   -0.5451   -1.2347 C   0  0  0  0  0  4           0  0  0
    0.0000    0.0000    0.0000 C   0  0  0  0  0  4           0  0  0
   -2.8126   -0.0124    0.1073 C   0  0  0  0  0  4           0  0  0
    7.1469   -0.9677   -1.1822 C   0  0  0  0  0  4           0  0  0
    4.6752   -1.2284   -2.4559 C   0  0  0  0  0  4           0  0  0
   -0.6593    0.0000    1.2330 C   0  0  0  0  0  4           0  0  0
   -0.7494    0.0011   -1.1808 C   0  0  0  0  0  4           0  0  0
   -2.0550   -0.0051    1.2855 C   0  0  0  0  0  4           0  0  0
   -2.1462   -0.0007   -1.1249 C   0  0  0  0  0  4           0  0  0
    7.0568   -1.6475   -2.3956 C   0  0  0  0  0  4           0  0  0
    5.8240   -1.7764   -3.0310 C   0  0  0  0  0  4           0  0  0
    7.1818   -1.7627    1.9207 C   0  0  1  0  0  4           0  0  0
    2.2843    0.0000   -1.0635 C   0  0  0  0  0  4           0  0  0
   -5.0062   -2.5154   -1.3738 C   0  0  0  0  0  4           0  0  0
   -6.1080   -4.1862   -0.1369 C   0  0  0  0  0  4           0  0  0
   -4.3097   -0.0079    0.1647 C   0  0  0  0  0  4           0  0  0
   -5.0094    2.5014   -1.4884 C   0  0  0  0  0  4           0  0  0
   -5.4608    3.5023   -2.5476 C   0  0  0  0  0  4           0  0  0
   -5.2645    4.9523   -2.1121 C   0  0  0  0  0  4           0  0  0
   -5.7141    5.9521   -3.1671 C   0  0  0  0  0  4           0  0  0
  1 15  1  0     0  0
  2  6  2  0     0  0
  2  7  2  0     0  0
  2 12  1  0     0  0
  2 30  1  0     0  0
  3 30  1  0     0  0
  4 30  1  0     0  0
  5 30  1  0     0  0
  8 31  2  0     0  0
  9 32  1  0     0  0
  9 33  1  0     0  0
 10 16  1  0     0  0
 10 17  1  0     0  0
 10 34  1  0     0  0
 11 15  1  0     0  0
 11 16  2  0     0  0
 12 18  1  0     0  0
 13 19  1  0     0  0
 13 31  1  0     0  0
 14 20  1  0     0  0
 14 31  1  0     0  0
 15 17  2  0     0  0
 16 35  1  0     0  0
 17 32  1  0     0  0
 18 19  1  0     0  0
 18 22  2  0     0  0
 19 23  2  0     0  0
 20 24  2  0     0  0
 20 25  1  0     0  0
 21 26  2  0     0  0
 21 27  1  0     0  0
 21 34  1  0     0  0
 22 28  1  0     0  0
 23 29  1  0     0  0
 24 26  1  0     0  0
 25 27  2  0     0  0
 28 29  2  0     0  0
 35 36  1  0     0  0
 36 37  1  0     0  0
 37 38  1  0     0  0
M  END
> <standard_type>
pIC50

> <# Confs.>
25

> <canonical_smiles>
CCCCC1=NC(Cl)=C(COC)N1CC2=CC=C(NC(NC3=CC=CC=C3NS(C(F)(F)F)(=O)=O)=O)C=C2

> <standard_relation>
=

> <Publication_ID>
nan

> <predicted_activity_value>
5.0

> <actual_activity_value>
5.619788758288394

> <Compound>
16

> <standard_units>
nM

> hash
3731556818081296511

$$$$
15
XXILIB    08252103513D 0   0.00000     0.00000

 38 40  0     1  0            999 V2000
   -6.0724   -4.3228    2.5421 Cl  0  0  0  0  0  1           0  0  0
    6.0732   -1.3866    1.5849 S   0  0  1  0  0  6           0  0  0
    8.6205   -1.4039    1.0809 F   0  0  0  0  0  1           0  0  0
    7.7556   -3.3546    1.5339 F   0  0  0  0  0  1           0  0  0
    7.3837   -2.4226   -0.4029 F   0  0  0  0  0  1           0  0  0
    6.2944   -1.1619    3.0001 O   0  0  0  0  0  2           0  0  0
    4.9303   -2.1524    1.1241 O   0  0  0  0  0  2           0  0  0
    1.9427    0.0000   -2.2467 O   0  0  0  0  0  2           0  0  0
   -6.1838   -2.7334   -1.1007 O   0  0  0  0  0  2           0  0  0
   -4.7989   -0.9548    1.1476 N   0  0  0  0  0  3           0  0  0
   -5.4868   -1.7695    3.0918 N   0  0  0  0  0  3           0  0  0
    6.1057    0.1108    0.7291 N   0  0  0  0  0  3           0  0  0
    3.6054   -0.0007   -0.6241 N   0  0  0  0  0  3           0  0  0
    1.4083    0.0000    0.0000 N   0  0  0  0  0  3           0  0  0
   -5.5304   -2.7559    2.1396 C   0  0  0  0  0  4           0  0  0
   -5.0412   -0.6921    2.4807 C   0  0  0  0  0  4           0  0  0
   -5.0966   -2.2869    0.9099 C   0  0  0  0  0  4           0  0  0
    6.0337   -0.0022   -0.7037 C   0  0  0  0  0  4           0  0  0
    4.7981   -0.0016   -1.3730 C   0  0  0  0  0  4           0  0  0
    0.0000    0.0000    0.0000 C   0  0  0  0  0  4           0  0  0
   -2.8126   -0.0124    0.1073 C   0  0  0  0  0  4           0  0  0
    7.2300   -0.0147   -1.4306 C   0  0  0  0  0  4           0  0  0
    4.7817   -0.0261   -2.7742 C   0  0  0  0  0  4           0  0  0
   -0.6593    0.0000    1.2330 C   0  0  0  0  0  4           0  0  0
   -0.7494    0.0011   -1.1808 C   0  0  0  0  0  4           0  0  0
   -2.0550   -0.0051    1.2855 C   0  0  0  0  0  4           0  0  0
   -2.1462   -0.0007   -1.1249 C   0  0  0  0  0  4           0  0  0
    7.2001   -0.0419   -2.8238 C   0  0  0  0  0  4           0  0  0
    5.9788   -0.0465   -3.4935 C   0  0  0  0  0  4           0  0  0
    7.5137   -2.1698    0.9223 C   0  0  1  0  0  4           0  0  0
    2.2843    0.0000   -1.0635 C   0  0  0  0  0  4           0  0  0
   -4.9431   -2.9042   -0.4270 C   0  0  0  0  0  4           0  0  0
   -6.1525   -3.2933   -2.4073 C   0  0  0  0  0  4           0  0  0
   -4.3097   -0.0079    0.1647 C   0  0  0  0  0  4           0  0  0
   -4.8364    0.6258    3.1380 C   0  0  0  0  0  4           0  0  0
   -6.0042    1.0117    4.0406 C   0  0  0  0  0  4           0  0  0
   -7.3267    1.1132    3.2848 C   0  0  0  0  0  4           0  0  0
   -7.2948    2.1538    2.1753 C   0  0  0  0  0  4           0  0  0
  1 15  1  0     0  0
  2  6  2  0     0  0
  2  7  2  0     0  0
  2 12  1  0     0  0
  2 30  1  0     0  0
  3 30  1  0     0  0
  4 30  1  0     0  0
  5 30  1  0     0  0
  8 31  2  0     0  0
  9 32  1  0     0  0
  9 33  1  0     0  0
 10 16  1  0     0  0
 10 17  1  0     0  0
 10 34  1  0     0  0
 11 15  1  0     0  0
 11 16  2  0     0  0
 12 18  1  0     0  0
 13 19  1  0     0  0
 13 31  1  0     0  0
 14 20  1  0     0  0
 14 31  1  0     0  0
 15 17  2  0     0  0
 16 35  1  0     0  0
 17 32  1  0     0  0
 18 19  1  0     0  0
 18 22  2  0     0  0
 19 23  2  0     0  0
 20 24  2  0     0  0
 20 25  1  0     0  0
 21 26  2  0     0  0
 21 27  1  0     0  0
 21 34  1  0     0  0
 22 28  1  0     0  0
 23 29  1  0     0  0
 24 26  1  0     0  0
 25 27  2  0     0  0
 28 29  2  0     0  0
 35 36  1  0     0  0
 36 37  1  0     0  0
 37 38  1  0     0  0
M  END
> <standard_type>
pIC50

> <# Confs.>
25

> <canonical_smiles>
CCCCC1=NC(Cl)=C(COC)N1CC2=CC=C(NC(NC3=CC=CC=C3NS(C(F)(F)F)(=O)=O)=O)C=C2

> <standard_relation>
=

> <Publication_ID>
nan

> <predicted_activity_value>
5.0

> <actual_activity_value>
5.619788758288394

> <Compound>
16

> <standard_units>
nM

> hash
3731556818081296511

$$$$
15
XXILIB    08252103513D 0   0.00000     0.00000

 38 40  0     1  0            999 V2000
   -6.2826   -1.4987   -4.4464 Cl  0  0  0  0  0  1           0  0  0
    5.9109   -0.5425    2.0744 S   0  0  1  0  0  6           0  0  0
    8.4010   -1.1989    1.7409 F   0  0  0  0  0  1           0  0  0
    7.2582   -2.5368    3.0303 F   0  0  0  0  0  1           0  0  0
    6.9601   -2.5897    0.8701 F   0  0  0  0  0  1           0  0  0
    6.2216    0.2885    3.2211 O   0  0  0  0  0  2           0  0  0
    4.6438   -1.2440    1.9870 O   0  0  0  0  0  2           0  0  0
    1.9427    0.0000   -2.2467 O   0  0  0  0  0  2           0  0  0
   -6.1969   -2.8778   -0.6861 O   0  0  0  0  0  2           0  0  0
   -4.8849   -0.0169   -1.1661 N   0  0  0  0  0  3           0  0  0
   -5.7016    0.7324   -3.0866 N   0  0  0  0  0  3           0  0  0
    6.1445    0.3431    0.6126 N   0  0  0  0  0  3           0  0  0
    3.6054   -0.0007   -0.6241 N   0  0  0  0  0  3           0  0  0
    1.4083    0.0000   -0.0000 N   0  0  0  0  0  3           0  0  0
   -5.7113   -0.6393   -3.0877 C   0  0  0  0  0  4           0  0  0
   -5.2048    1.0926   -1.9221 C   0  0  0  0  0  4           0  0  0
   -5.2168   -1.1464   -1.8967 C   0  0  0  0  0  4           0  0  0
    5.9978   -0.4232   -0.5966 C   0  0  0  0  0  4           0  0  0
    4.7518   -0.5451   -1.2347 C   0  0  0  0  0  4           0  0  0
    0.0000    0.0000    0.0000 C   0  0  0  0  0  4           0  0  0
   -2.8126   -0.0124    0.1073 C   0  0  0  0  0  4           0  0  0
    7.1469   -0.9677   -1.1822 C   0  0  0  0  0  4           0  0  0
    4.6752   -1.2284   -2.4559 C   0  0  0  0  0  4           0  0  0
   -0.6593    0.0000    1.2330 C   0  0  0  0  0  4           0  0  0
   -0.7494    0.0011   -1.1808 C   0  0  0  0  0  4           0  0  0
   -2.0550   -0.0051    1.2855 C   0  0  0  0  0  4           0  0  0
   -2.1462   -0.0007   -1.1249 C   0  0  0  0  0  4           0  0  0
    7.0568   -1.6475   -2.3956 C   0  0  0  0  0  4           0  0  0
    5.8240   -1.7764   -3.0310 C   0  0  0  0  0  4           0  0  0
    7.1818   -1.7627    1.9207 C   0  0  1  0  0  4           0  0  0
    2.2843    0.0000   -1.0635 C   0  0  0  0  0  4           0  0  0
   -5.0062   -2.5154   -1.3738 C   0  0  0  0  0  4           0  0  0
   -6.1080   -4.1862   -0.1369 C   0  0  0  0  0  4           0  0  0
   -4.3097   -0.0079    0.1647 C   0  0  0  0  0  4           0  0  0
   -5.0094    2.5014   -1.4884 C   0  0  0  0  0  4           0  0  0
   -6.2286    3.0586   -0.7600 C   0  0  0  0  0  4           0  0  0
   -7.4879    3.0490   -1.6229 C   0  0  0  0  0  4           0  0  0
   -8.7050    3.6043   -0.8982 C   0  0  0  0  0  4           0  0  0
  1 15  1  0     0  0
  2  6  2  0     0  0
  2  7  2  0     0  0
  2 12  1  0     0  0
  2 30  1  0     0  0
  3 30  1  0     0  0
  4 30  1  0     0  0
  5 30  1  0     0  0
  8 31  2  0     0  0
  9 32  1  0     0  0
  9 33  1  0     0  0
 10 16  1  0     0  0
 10 17  1  0     0  0
 10 34  1  0     0  0
 11 15  1  0     0  0
 11 16  2  0     0  0
 12 18  1  0     0  0
 13 19  1  0     0  0
 13 31  1  0     0  0
 14 20  1  0     0  0
 14 31  1  0     0  0
 15 17  2  0     0  0
 16 35  1  0     0  0
 17 32  1  0     0  0
 18 19  1  0     0  0
 18 22  2  0     0  0
 19 23  2  0     0  0
 20 24  2  0     0  0
 20 25  1  0     0  0
 21 26  2  0     0  0
 21 27  1  0     0  0
 21 34  1  0     0  0
 22 28  1  0     0  0
 23 29  1  0     0  0
 24 26  1  0     0  0
 25 27  2  0     0  0
 28 29  2  0     0  0
 35 36  1  0     0  0
 36 37  1  0     0  0
 37 38  1  0     0  0
M  END
> <standard_type>
pIC50

> <# Confs.>
25

> <canonical_smiles>
CCCCC1=NC(Cl)=C(COC)N1CC2=CC=C(NC(NC3=CC=CC=C3NS(C(F)(F)F)(=O)=O)=O)C=C2

> <standard_relation>
=

> <Publication_ID>
nan

> <predicted_activity_value>
5.0

> <actual_activity_value>
5.619788758288394

> <Compound>
16

> <standard_units>
nM

> hash
3731556818081296511

$$$$
15
XXILIB    08252103513D 0   0.00000     0.00000

 38 40  0     1  0            999 V2000
   -6.0724   -4.3228    2.5421 Cl  0  0  0  0  0  1           0  0  0
    5.9109   -0.5425    2.0744 S   0  0  1  0  0  6           0  0  0
    8.4010   -1.1989    1.7409 F   0  0  0  0  0  1           0  0  0
    7.2582   -2.5368    3.0303 F   0  0  0  0  0  1           0  0  0
    6.9601   -2.5897    0.8701 F   0  0  0  0  0  1           0  0  0
    6.2216    0.2885    3.2211 O   0  0  0  0  0  2           0  0  0
    4.6438   -1.2440    1.9870 O   0  0  0  0  0  2           0  0  0
    1.9427    0.0000   -2.2467 O   0  0  0  0  0  2           0  0  0
   -6.1838   -2.7334   -1.1007 O   0  0  0  0  0  2           0  0  0
   -4.7989   -0.9548    1.1476 N   0  0  0  0  0  3           0  0  0
   -5.4868   -1.7695    3.0918 N   0  0  0  0  0  3           0  0  0
    6.1445    0.3431    0.6126 N   0  0  0  0  0  3           0  0  0
    3.6054   -0.0007   -0.6241 N   0  0  0  0  0  3           0  0  0
    1.4083    0.0000   -0.0000 N   0  0  0  0  0  3           0  0  0
   -5.5304   -2.7559    2.1396 C   0  0  0  0  0  4           0  0  0
   -5.0412   -0.6921    2.4807 C   0  0  0  0  0  4           0  0  0
   -5.0966   -2.2869    0.9099 C   0  0  0  0  0  4           0  0  0
    5.9978   -0.4232   -0.5966 C   0  0  0  0  0  4           0  0  0
    4.7518   -0.5451   -1.2347 C   0  0  0  0  0  4           0  0  0
    0.0000    0.0000    0.0000 C   0  0  0  0  0  4           0  0  0
   -2.8126   -0.0124    0.1073 C   0  0  0  0  0  4           0  0  0
    7.1469   -0.9677   -1.1822 C   0  0  0  0  0  4           0  0  0
    4.6752   -1.2284   -2.4559 C   0  0  0  0  0  4           0  0  0
   -0.6593    0.0000    1.2330 C   0  0  0  0  0  4           0  0  0
   -0.7494    0.0011   -1.1808 C   0  0  0  0  0  4           0  0  0
   -2.0550   -0.0051    1.2855 C   0  0  0  0  0  4           0  0  0
   -2.1462   -0.0007   -1.1249 C   0  0  0  0  0  4           0  0  0
    7.0568   -1.6475   -2.3956 C   0  0  0  0  0  4           0  0  0
    5.8240   -1.7764   -3.0310 C   0  0  0  0  0  4           0  0  0
    7.1818   -1.7627    1.9207 C   0  0  1  0  0  4           0  0  0
    2.2843    0.0000   -1.0635 C   0  0  0  0  0  4           0  0  0
   -4.9431   -2.9042   -0.4270 C   0  0  0  0  0  4           0  0  0
   -6.1525   -3.2933   -2.4073 C   0  0  0  0  0  4           0  0  0
   -4.3097   -0.0079    0.1647 C   0  0  0  0  0  4           0  0  0
   -4.8364    0.6258    3.1380 C   0  0  0  0  0  4           0  0  0
   -6.0042    1.0117    4.0406 C   0  0  0  0  0  4           0  0  0
   -5.8039    2.3637    4.7205 C   0  0  0  0  0  4           0  0  0
   -6.9676    2.7503    5.6212 C   0  0  0  0  0  4           0  0  0
  1 15  1  0     0  0
  2  6  2  0     0  0
  2  7  2  0     0  0
  2 12  1  0     0  0
  2 30  1  0     0  0
  3 30  1  0     0  0
  4 30  1  0     0  0
  5 30  1  0     0  0
  8 31  2  0     0  0
  9 32  1  0     0  0
  9 33  1  0     0  0
 10 16  1  0     0  0
 10 17  1  0     0  0
 10 34  1  0     0  0
 11 15  1  0     0  0
 11 16  2  0     0  0
 12 18  1  0     0  0
 13 19  1  0     0  0
 13 31  1  0     0  0
 14 20  1  0     0  0
 14 31  1  0     0  0
 15 17  2  0     0  0
 16 35  1  0     0  0
 17 32  1  0     0  0
 18 19  1  0     0  0
 18 22  2  0     0  0
 19 23  2  0     0  0
 20 24  2  0     0  0
 20 25  1  0     0  0
 21 26  2  0     0  0
 21 27  1  0     0  0
 21 34  1  0     0  0
 22 28  1  0     0  0
 23 29  1  0     0  0
 24 26  1  0     0  0
 25 27  2  0     0  0
 28 29  2  0     0  0
 35 36  1  0     0  0
 36 37  1  0     0  0
 37 38  1  0     0  0
M  END
> <standard_type>
pIC50

> <# Confs.>
25

> <canonical_smiles>
CCCCC1=NC(Cl)=C(COC)N1CC2=CC=C(NC(NC3=CC=CC=C3NS(C(F)(F)F)(=O)=O)=O)C=C2

> <standard_relation>
=

> <Publication_ID>
nan

> <predicted_activity_value>
5.0

> <actual_activity_value>
5.619788758288394

> <Compound>
16

> <standard_units>
nM

> hash
3731556818081296511

$$$$
15
XXILIB    08252103513D 0   0.00000     0.00000

 38 40  0     1  0            999 V2000
   -6.1981   -4.3721   -2.0182 Cl  0  0  0  0  0  1           0  0  0
    6.0732   -1.3866    1.5849 S   0  0  1  0  0  6           0  0  0
    8.6205   -1.4039    1.0809 F   0  0  0  0  0  1           0  0  0
    7.7556   -3.3546    1.5339 F   0  0  0  0  0  1           0  0  0
    7.3837   -2.4226   -0.4029 F   0  0  0  0  0  1           0  0  0
    6.2944   -1.1619    3.0001 O   0  0  0  0  0  2           0  0  0
    4.9303   -2.1524    1.1241 O   0  0  0  0  0  2           0  0  0
    1.9427    0.0000   -2.2467 O   0  0  0  0  0  2           0  0  0
   -6.1081   -2.6879    1.6156 O   0  0  0  0  0  2           0  0  0
   -4.8722   -0.9697   -0.7629 N   0  0  0  0  0  3           0  0  0
   -5.6921   -1.8184   -2.6402 N   0  0  0  0  0  3           0  0  0
    6.1057    0.1108    0.7291 N   0  0  0  0  0  3           0  0  0
    3.6054   -0.0007   -0.6241 N   0  0  0  0  0  3           0  0  0
    1.4083    0.0000    0.0000 N   0  0  0  0  0  3           0  0  0
   -5.6634   -2.7894   -1.6717 C   0  0  0  0  0  4           0  0  0
   -5.2162   -0.7278   -2.0774 C   0  0  0  0  0  4           0  0  0
   -5.1657   -2.2934   -0.4773 C   0  0  0  0  0  4           0  0  0
    6.0337   -0.0022   -0.7037 C   0  0  0  0  0  4           0  0  0
    4.7981   -0.0016   -1.3730 C   0  0  0  0  0  4           0  0  0
    0.0000    0.0000    0.0000 C   0  0  0  0  0  4           0  0  0
   -2.8126   -0.0124    0.1073 C   0  0  0  0  0  4           0  0  0
    7.2300   -0.0147   -1.4306 C   0  0  0  0  0  4           0  0  0
    4.7817   -0.0261   -2.7742 C   0  0  0  0  0  4           0  0  0
   -0.6593    0.0000    1.2330 C   0  0  0  0  0  4           0  0  0
   -0.7494    0.0011   -1.1808 C   0  0  0  0  0  4           0  0  0
   -2.0550   -0.0051    1.2855 C   0  0  0  0  0  4           0  0  0
   -2.1462   -0.0007   -1.1249 C   0  0  0  0  0  4           0  0  0
    7.2001   -0.0419   -2.8238 C   0  0  0  0  0  4           0  0  0
    5.9788   -0.0465   -3.4935 C   0  0  0  0  0  4           0  0  0
    7.5137   -2.1698    0.9223 C   0  0  1  0  0  4           0  0  0
    2.2843    0.0000   -1.0635 C   0  0  0  0  0  4           0  0  0
   -4.9217   -2.8865    0.8571 C   0  0  0  0  0  4           0  0  0
   -5.9876   -3.2227    2.9274 C   0  0  0  0  0  4           0  0  0
   -4.3097   -0.0079    0.1647 C   0  0  0  0  0  4           0  0  0
   -5.0643    0.5799   -2.7685 C   0  0  0  0  0  4           0  0  0
   -4.4596    0.4332   -4.1615 C   0  0  0  0  0  4           0  0  0
   -4.2993    1.7705   -4.8800 C   0  0  0  0  0  4           0  0  0
   -3.6964    1.6262   -6.2694 C   0  0  0  0  0  4           0  0  0
  1 15  1  0     0  0
  2  6  2  0     0  0
  2  7  2  0     0  0
  2 12  1  0     0  0
  2 30  1  0     0  0
  3 30  1  0     0  0
  4 30  1  0     0  0
  5 30  1  0     0  0
  8 31  2  0     0  0
  9 32  1  0     0  0
  9 33  1  0     0  0
 10 16  1  0     0  0
 10 17  1  0     0  0
 10 34  1  0     0  0
 11 15  1  0     0  0
 11 16  2  0     0  0
 12 18  1  0     0  0
 13 19  1  0     0  0
 13 31  1  0     0  0
 14 20  1  0     0  0
 14 31  1  0     0  0
 15 17  2  0     0  0
 16 35  1  0     0  0
 17 32  1  0     0  0
 18 19  1  0     0  0
 18 22  2  0     0  0
 19 23  2  0     0  0
 20 24  2  0     0  0
 20 25  1  0     0  0
 21 26  2  0     0  0
 21 27  1  0     0  0
 21 34  1  0     0  0
 22 28  1  0     0  0
 23 29  1  0     0  0
 24 26  1  0     0  0
 25 27  2  0     0  0
 28 29  2  0     0  0
 35 36  1  0     0  0
 36 37  1  0     0  0
 37 38  1  0     0  0
M  END
> <standard_type>
pIC50

> <# Confs.>
25

> <canonical_smiles>
CCCCC1=NC(Cl)=C(COC)N1CC2=CC=C(NC(NC3=CC=CC=C3NS(C(F)(F)F)(=O)=O)=O)C=C2

> <standard_relation>
=

> <Publication_ID>
nan

> <predicted_activity_value>
5.0

> <actual_activity_value>
5.619788758288394

> <Compound>
16

> <standard_units>
nM

> hash
3731556818081296511

$$$$
