4_
XXILIB    08252103493D 0   0.00000     0.00000

 34 37  0     1  0            999 V2000
    3.9192   -0.4544    0.7871 S   0  0  0  0  0  2           0  0  0
    9.0398   -4.4456   -2.7316 F   0  0  0  0  0  1           0  0  0
   -2.9470   -0.2996   -4.7704 O   0  0  0  0  0  2           0  0  0
   -0.2003   -0.2152   -4.8581 O   0  0  0  0  0  2           0  0  0
    5.6662   -4.0264    2.8455 O   0  0  0  0  0  2           0  0  0
   -6.3815   -0.5046   -5.9297 O   0  0  0  0  0  2           0  0  0
    1.7953   -1.1817    2.0413 N   0  0  0  0  0  3           0  0  0
   -0.6605   -0.0000    1.1845 N   0  0  0  0  0  3           0  0  0
   -2.7579   -0.0594    0.0228 N   0  0  0  0  0  3           0  0  0
    1.4109   -0.0000    0.0000 N   0  0  0  0  0  3           0  0  0
    6.6206   -2.8739    1.0637 N   0  0  0  0  0  3           0  0  0
    2.1978   -0.5509    0.9542 C   0  0  0  0  0  4           0  0  0
    4.1207   -1.3110    2.2561 C   0  0  0  0  0  4           0  0  0
    8.3824   -4.7190   -1.5959 C   0  0  0  0  0  4           0  0  0
   -2.2654   -0.1910   -3.5908 C   0  0  0  0  0  4           0  0  0
   -0.8735   -0.1473   -3.6711 C   0  0  0  0  0  4           0  0  0
   -1.9994   -0.0215    1.1280 C   0  0  0  0  0  4           0  0  0
    0.0000    0.0000    0.0000 C   0  0  0  0  0  4           0  0  0
   -2.1115   -0.0848   -1.1499 C   0  0  0  0  0  4           0  0  0
    2.8804   -1.6141    2.7759 C   0  0  0  0  0  4           0  0  0
    7.1567   -3.9538    0.3367 C   0  0  0  0  0  4           0  0  0
   -0.7045   -0.0618   -1.2298 C   0  0  0  0  0  4           0  0  0
    7.8450   -3.6741   -0.8482 C   0  0  0  0  0  4           0  0  0
    8.2480   -6.0406   -1.1846 C   0  0  0  0  0  4           0  0  0
   -2.8623   -0.1491   -2.3248 C   0  0  0  0  0  4           0  0  0
   -0.1013   -0.1072   -2.5086 C   0  0  0  0  0  4           0  0  0
    7.0210   -5.2833    0.7590 C   0  0  0  0  0  4           0  0  0
    7.5666   -6.3212   -0.0025 C   0  0  0  0  0  4           0  0  0
    5.9139   -2.9772    2.2524 C   0  0  0  0  0  4           0  0  0
   -4.3670   -0.3417   -4.6548 C   0  0  0  0  0  4           0  0  0
   -4.9640   -0.4625   -6.0451 C   0  0  0  0  0  4           0  0  0
    0.1459   -1.5294   -5.2881 C   0  0  0  0  0  4           0  0  0
   -7.0085   -0.6178   -7.1999 C   0  0  0  0  0  4           0  0  0
    5.4693   -1.6353    2.7879 C   0  0  0  0  0  4           0  0  0
  1 12  1  0     0  0
  1 13  1  0     0  0
  2 14  1  0     0  0
  3 15  1  0     0  0
  3 30  1  0     0  0
  4 16  1  0     0  0
  4 32  1  0     0  0
  5 29  2  0     0  0
  6 31  1  0     0  0
  6 33  1  0     0  0
  7 12  2  0     0  0
  7 20  1  0     0  0
  8 17  1  0     0  0
  8 18  2  0     0  0
  9 17  2  0     0  0
  9 19  1  0     0  0
 10 12  1  0     0  0
 10 18  1  0     0  0
 11 21  1  0     0  0
 11 29  1  0     0  0
 13 20  2  0     0  0
 13 34  1  0     0  0
 14 23  2  0     0  0
 14 24  1  0     0  0
 15 16  1  0     0  0
 15 25  2  0     0  0
 16 26  2  0     0  0
 18 22  1  0     0  0
 19 22  2  0     0  0
 19 25  1  0     0  0
 21 23  1  0     0  0
 21 27  2  0     0  0
 22 26  1  0     0  0
 24 28  2  0     0  0
 27 28  1  0     0  0
 29 34  1  0     0  0
 30 31  1  0     0  0
M  END
> <standard_type>
pIC50

> <# Confs.>
25

> <canonical_smiles>
FC1=CC(NC(CC2=CN=C(NC3=NC=NC4=C3C=C(OC)C(OCCOC)=C4)S2)=O)=CC=C1

> <standard_relation>
=

> <Publication_ID>
nan

> <predicted_activity_value>
8.045757490560675

> <actual_activity_value>
8.096910013008056

> <Compound>
4

> <standard_units>
nM

> hash
10565851915682723624

$$$$
4_
XXILIB    08252103493D 0   0.00000     0.00000

 34 37  0     1  0            999 V2000
    3.9192    0.4544    0.7871 S   0  0  0  0  0  2           0  0  0
    9.0398   -4.5885    2.4842 F   0  0  0  0  0  1           0  0  0
   -2.9470   -0.2996   -4.7704 O   0  0  0  0  0  2           0  0  0
   -0.2003   -0.2152   -4.8581 O   0  0  0  0  0  2           0  0  0
    5.6662    0.4511    4.9097 O   0  0  0  0  0  2           0  0  0
   -6.3815   -0.5046   -5.9297 O   0  0  0  0  0  2           0  0  0
    1.7953    1.1769    2.0440 N   0  0  0  0  0  3           0  0  0
   -0.6605   -0.0000    1.1845 N   0  0  0  0  0  3           0  0  0
   -2.7579   -0.0594    0.0228 N   0  0  0  0  0  3           0  0  0
    1.4109    0.0000    0.0000 N   0  0  0  0  0  3           0  0  0
    6.6206   -0.5158    3.0207 N   0  0  0  0  0  3           0  0  0
    2.1978    0.5509    0.9542 C   0  0  0  0  0  4           0  0  0
    4.1207    1.2983    2.2634 C   0  0  0  0  0  4           0  0  0
    8.3824   -3.7416    3.2888 C   0  0  0  0  0  4           0  0  0
   -2.2654   -0.1910   -3.5908 C   0  0  0  0  0  4           0  0  0
   -0.8735   -0.1473   -3.6711 C   0  0  0  0  0  4           0  0  0
   -1.9994   -0.0215    1.1280 C   0  0  0  0  0  4           0  0  0
    0.0000    0.0000    0.0000 C   0  0  0  0  0  4           0  0  0
   -2.1115   -0.0848   -1.1499 C   0  0  0  0  0  4           0  0  0
    2.8804    1.5970    2.7858 C   0  0  0  0  0  4           0  0  0
    7.1567   -1.6853    3.5924 C   0  0  0  0  0  4           0  0  0
   -0.7045   -0.0618   -1.2298 C   0  0  0  0  0  4           0  0  0
    7.8450   -2.5716    2.7578 C   0  0  0  0  0  4           0  0  0
    8.2480   -4.0462    4.6390 C   0  0  0  0  0  4           0  0  0
   -2.8623   -0.1491   -2.3248 C   0  0  0  0  0  4           0  0  0
   -0.1013   -0.1072   -2.5086 C   0  0  0  0  0  4           0  0  0
    7.0210   -1.9844    4.9549 C   0  0  0  0  0  4           0  0  0
    7.5666   -3.1627    5.4731 C   0  0  0  0  0  4           0  0  0
    5.9139    0.4620    3.7046 C   0  0  0  0  0  4           0  0  0
   -4.3670   -0.3417   -4.6548 C   0  0  0  0  0  4           0  0  0
   -4.9640   -0.4625   -6.0451 C   0  0  0  0  0  4           0  0  0
    0.0539    1.0384   -5.4872 C   0  0  0  0  0  4           0  0  0
   -7.0085   -0.6178   -7.1999 C   0  0  0  0  0  4           0  0  0
    5.4693    1.5968    2.8102 C   0  0  0  0  0  4           0  0  0
  1 12  1  0     0  0
  1 13  1  0     0  0
  2 14  1  0     0  0
  3 15  1  0     0  0
  3 30  1  0     0  0
  4 16  1  0     0  0
  4 32  1  0     0  0
  5 29  2  0     0  0
  6 31  1  0     0  0
  6 33  1  0     0  0
  7 12  2  0     0  0
  7 20  1  0     0  0
  8 17  1  0     0  0
  8 18  2  0     0  0
  9 17  2  0     0  0
  9 19  1  0     0  0
 10 12  1  0     0  0
 10 18  1  0     0  0
 11 21  1  0     0  0
 11 29  1  0     0  0
 13 20  2  0     0  0
 13 34  1  0     0  0
 14 23  2  0     0  0
 14 24  1  0     0  0
 15 16  1  0     0  0
 15 25  2  0     0  0
 16 26  2  0     0  0
 18 22  1  0     0  0
 19 22  2  0     0  0
 19 25  1  0     0  0
 21 23  1  0     0  0
 21 27  2  0     0  0
 22 26  1  0     0  0
 24 28  2  0     0  0
 27 28  1  0     0  0
 29 34  1  0     0  0
 30 31  1  0     0  0
M  END
> <standard_type>
pIC50

> <# Confs.>
25

> <canonical_smiles>
FC1=CC(NC(CC2=CN=C(NC3=NC=NC4=C3C=C(OC)C(OCCOC)=C4)S2)=O)=CC=C1

> <standard_relation>
=

> <Publication_ID>
nan

> <predicted_activity_value>
8.045757490560675

> <actual_activity_value>
8.096910013008056

> <Compound>
4

> <standard_units>
nM

> hash
10565851915682723624

$$$$
4_
XXILIB    08252103493D 0   0.00000     0.00000

 34 37  0     1  0            999 V2000
    3.9192    0.4544    0.7871 S   0  0  0  0  0  2           0  0  0
    6.9300   -3.8049    7.2600 F   0  0  0  0  0  1           0  0  0
   -2.9470   -0.2996   -4.7704 O   0  0  0  0  0  2           0  0  0
   -0.2003   -0.2152   -4.8581 O   0  0  0  0  0  2           0  0  0
    5.2039    2.1256    5.1359 O   0  0  0  0  0  2           0  0  0
   -6.3815   -0.5046   -5.9297 O   0  0  0  0  0  2           0  0  0
    1.7953    1.1769    2.0440 N   0  0  0  0  0  3           0  0  0
   -0.6605   -0.0000    1.1845 N   0  0  0  0  0  3           0  0  0
   -2.7579   -0.0594    0.0228 N   0  0  0  0  0  3           0  0  0
    1.4109   -0.0000    0.0000 N   0  0  0  0  0  3           0  0  0
    5.8892   -0.0205    4.5540 N   0  0  0  0  0  3           0  0  0
    2.1978    0.5509    0.9542 C   0  0  0  0  0  4           0  0  0
    4.1207    1.2983    2.2634 C   0  0  0  0  0  4           0  0  0
    6.5365   -2.5262    7.1778 C   0  0  0  0  0  4           0  0  0
   -2.2654   -0.1910   -3.5908 C   0  0  0  0  0  4           0  0  0
   -0.8735   -0.1473   -3.6711 C   0  0  0  0  0  4           0  0  0
   -1.9994   -0.0215    1.1280 C   0  0  0  0  0  4           0  0  0
    0.0000    0.0000    0.0000 C   0  0  0  0  0  4           0  0  0
   -2.1115   -0.0848   -1.1499 C   0  0  0  0  0  4           0  0  0
    2.8804    1.5970    2.7858 C   0  0  0  0  0  4           0  0  0
    6.0056   -0.5928    5.8350 C   0  0  0  0  0  4           0  0  0
   -0.7045   -0.0618   -1.2298 C   0  0  0  0  0  4           0  0  0
    6.4173   -1.9262    5.9266 C   0  0  0  0  0  4           0  0  0
    6.2539   -1.8213    8.3428 C   0  0  0  0  0  4           0  0  0
   -2.8623   -0.1491   -2.3248 C   0  0  0  0  0  4           0  0  0
   -0.1013   -0.1072   -2.5086 C   0  0  0  0  0  4           0  0  0
    5.7229    0.1244    7.0054 C   0  0  0  0  0  4           0  0  0
    5.8478   -0.4918    8.2542 C   0  0  0  0  0  4           0  0  0
    5.4955    1.2825    4.2886 C   0  0  0  0  0  4           0  0  0
   -4.3670   -0.3417   -4.6548 C   0  0  0  0  0  4           0  0  0
   -4.9640   -0.4625   -6.0451 C   0  0  0  0  0  4           0  0  0
    0.0539    1.0384   -5.4872 C   0  0  0  0  0  4           0  0  0
   -7.0085   -0.6178   -7.1999 C   0  0  0  0  0  4           0  0  0
    5.4693    1.5968    2.8102 C   0  0  0  0  0  4           0  0  0
  1 12  1  0     0  0
  1 13  1  0     0  0
  2 14  1  0     0  0
  3 15  1  0     0  0
  3 30  1  0     0  0
  4 16  1  0     0  0
  4 32  1  0     0  0
  5 29  2  0     0  0
  6 31  1  0     0  0
  6 33  1  0     0  0
  7 12  2  0     0  0
  7 20  1  0     0  0
  8 17  1  0     0  0
  8 18  2  0     0  0
  9 17  2  0     0  0
  9 19  1  0     0  0
 10 12  1  0     0  0
 10 18  1  0     0  0
 11 21  1  0     0  0
 11 29  1  0     0  0
 13 20  2  0     0  0
 13 34  1  0     0  0
 14 23  2  0     0  0
 14 24  1  0     0  0
 15 16  1  0     0  0
 15 25  2  0     0  0
 16 26  2  0     0  0
 18 22  1  0     0  0
 19 22  2  0     0  0
 19 25  1  0     0  0
 21 23  1  0     0  0
 21 27  2  0     0  0
 22 26  1  0     0  0
 24 28  2  0     0  0
 27 28  1  0     0  0
 29 34  1  0     0  0
 30 31  1  0     0  0
M  END
> <standard_type>
pIC50

> <# Confs.>
25

> <canonical_smiles>
FC1=CC(NC(CC2=CN=C(NC3=NC=NC4=C3C=C(OC)C(OCCOC)=C4)S2)=O)=CC=C1

> <standard_relation>
=

> <Publication_ID>
nan

> <predicted_activity_value>
8.045757490560675

> <actual_activity_value>
8.096910013008056

> <Compound>
4

> <standard_units>
nM

> hash
10565851915682723624

$$$$
4_
XXILIB    08252103493D 0   0.00000     0.00000

 34 37  0     1  0            999 V2000
    3.9192    0.4544    0.7871 S   0  0  0  0  0  2           0  0  0
    9.0636    4.3902   -2.7025 F   0  0  0  0  0  1           0  0  0
   -2.9470   -0.2996   -4.7704 O   0  0  0  0  0  2           0  0  0
   -0.2003   -0.2152   -4.8581 O   0  0  0  0  0  2           0  0  0
    5.7054    3.9838    2.8849 O   0  0  0  0  0  2           0  0  0
   -6.3815   -0.5046   -5.9297 O   0  0  0  0  0  2           0  0  0
    1.7953    1.1769    2.0440 N   0  0  0  0  0  3           0  0  0
   -0.6605   -0.0000    1.1845 N   0  0  0  0  0  3           0  0  0
   -2.7579   -0.0594    0.0228 N   0  0  0  0  0  3           0  0  0
    1.4109   -0.0000    0.0000 N   0  0  0  0  0  3           0  0  0
    6.6325    2.8296    1.0898 N   0  0  0  0  0  3           0  0  0
    2.1978    0.5509    0.9542 C   0  0  0  0  0  4           0  0  0
    4.1207    1.2983    2.2634 C   0  0  0  0  0  4           0  0  0
    8.4227    4.6648   -1.5577 C   0  0  0  0  0  4           0  0  0
   -2.2654   -0.1910   -3.5908 C   0  0  0  0  0  4           0  0  0
   -0.8735   -0.1473   -3.6711 C   0  0  0  0  0  4           0  0  0
   -1.9994   -0.0215    1.1280 C   0  0  0  0  0  4           0  0  0
    0.0000    0.0000    0.0000 C   0  0  0  0  0  4           0  0  0
   -2.1115   -0.0848   -1.1499 C   0  0  0  0  0  4           0  0  0
    2.8804    1.5970    2.7858 C   0  0  0  0  0  4           0  0  0
    7.1874    3.9056    0.3712 C   0  0  0  0  0  4           0  0  0
   -0.7045   -0.0618   -1.2298 C   0  0  0  0  0  4           0  0  0
    7.8558    3.6250   -0.8248 C   0  0  0  0  0  4           0  0  0
    8.3354    5.9824   -1.1217 C   0  0  0  0  0  4           0  0  0
   -2.8623   -0.1491   -2.3248 C   0  0  0  0  0  4           0  0  0
   -0.1013   -0.1072   -2.5086 C   0  0  0  0  0  4           0  0  0
    7.0925    5.2319    0.8143 C   0  0  0  0  0  4           0  0  0
    7.6664    6.2648    0.0670 C   0  0  0  0  0  4           0  0  0
    5.9414    2.9344    2.2875 C   0  0  0  0  0  4           0  0  0
   -4.3670   -0.3417   -4.6548 C   0  0  0  0  0  4           0  0  0
   -4.9640   -0.4625   -6.0451 C   0  0  0  0  0  4           0  0  0
    0.0539    1.0384   -5.4872 C   0  0  0  0  0  4           0  0  0
   -7.0085   -0.6178   -7.1999 C   0  0  0  0  0  4           0  0  0
    5.4693    1.5968    2.8102 C   0  0  0  0  0  4           0  0  0
  1 12  1  0     0  0
  1 13  1  0     0  0
  2 14  1  0     0  0
  3 15  1  0     0  0
  3 30  1  0     0  0
  4 16  1  0     0  0
  4 32  1  0     0  0
  5 29  2  0     0  0
  6 31  1  0     0  0
  6 33  1  0     0  0
  7 12  2  0     0  0
  7 20  1  0     0  0
  8 17  1  0     0  0
  8 18  2  0     0  0
  9 17  2  0     0  0
  9 19  1  0     0  0
 10 12  1  0     0  0
 10 18  1  0     0  0
 11 21  1  0     0  0
 11 29  1  0     0  0
 13 20  2  0     0  0
 13 34  1  0     0  0
 14 23  2  0     0  0
 14 24  1  0     0  0
 15 16  1  0     0  0
 15 25  2  0     0  0
 16 26  2  0     0  0
 18 22  1  0     0  0
 19 22  2  0     0  0
 19 25  1  0     0  0
 21 23  1  0     0  0
 21 27  2  0     0  0
 22 26  1  0     0  0
 24 28  2  0     0  0
 27 28  1  0     0  0
 29 34  1  0     0  0
 30 31  1  0     0  0
M  END
> <standard_type>
pIC50

> <# Confs.>
25

> <canonical_smiles>
FC1=CC(NC(CC2=CN=C(NC3=NC=NC4=C3C=C(OC)C(OCCOC)=C4)S2)=O)=CC=C1

> <standard_relation>
=

> <Publication_ID>
nan

> <predicted_activity_value>
8.045757490560675

> <actual_activity_value>
8.096910013008056

> <Compound>
4

> <standard_units>
nM

> hash
10565851915682723624

$$$$
4_
XXILIB    08252103493D 0   0.00000     0.00000

 34 37  0     1  0            999 V2000
    3.9192   -0.4544    0.7871 S   0  0  0  0  0  2           0  0  0
    6.9300   -8.1898    0.3348 F   0  0  0  0  0  1           0  0  0
   -2.9470   -0.2996   -4.7704 O   0  0  0  0  0  2           0  0  0
   -0.2003   -0.2152   -4.8581 O   0  0  0  0  0  2           0  0  0
    5.2039   -3.3850    4.4088 O   0  0  0  0  0  2           0  0  0
   -6.3815   -0.5046   -5.9297 O   0  0  0  0  0  2           0  0  0
    1.7953   -1.1817    2.0413 N   0  0  0  0  0  3           0  0  0
   -0.6605   -0.0000    1.1845 N   0  0  0  0  0  3           0  0  0
   -2.7579   -0.0594    0.0228 N   0  0  0  0  0  3           0  0  0
    1.4109   -0.0000    0.0000 N   0  0  0  0  0  3           0  0  0
    5.8892   -3.9541    2.2593 N   0  0  0  0  0  3           0  0  0
    2.1978   -0.5509    0.9542 C   0  0  0  0  0  4           0  0  0
    4.1207   -1.3110    2.2561 C   0  0  0  0  0  4           0  0  0
    6.5365   -7.4793    1.4012 C   0  0  0  0  0  4           0  0  0
   -2.2654   -0.1910   -3.5908 C   0  0  0  0  0  4           0  0  0
   -0.8735   -0.1473   -3.6711 C   0  0  0  0  0  4           0  0  0
   -1.9994   -0.0215    1.1280 C   0  0  0  0  0  4           0  0  0
    0.0000    0.0000    0.0000 C   0  0  0  0  0  4           0  0  0
   -2.1115   -0.0848   -1.1499 C   0  0  0  0  0  4           0  0  0
    2.8804   -1.6141    2.7759 C   0  0  0  0  0  4           0  0  0
    6.0056   -5.3496    2.4041 C   0  0  0  0  0  4           0  0  0
   -0.7045   -0.0618   -1.2298 C   0  0  0  0  0  4           0  0  0
    6.4173   -6.0957    1.2951 C   0  0  0  0  0  4           0  0  0
    6.2539   -8.1357    2.5941 C   0  0  0  0  0  4           0  0  0
   -2.8623   -0.1491   -2.3248 C   0  0  0  0  0  4           0  0  0
   -0.1013   -0.1072   -2.5086 C   0  0  0  0  0  4           0  0  0
    5.7229   -6.0047    3.6105 C   0  0  0  0  0  4           0  0  0
    5.8478   -7.3942    3.7012 C   0  0  0  0  0  4           0  0  0
    5.4955   -3.0728    3.2550 C   0  0  0  0  0  4           0  0  0
   -4.3670   -0.3417   -4.6548 C   0  0  0  0  0  4           0  0  0
   -4.9640   -0.4625   -6.0451 C   0  0  0  0  0  4           0  0  0
    0.0539    1.0384   -5.4872 C   0  0  0  0  0  4           0  0  0
   -7.0085   -0.6178   -7.1999 C   0  0  0  0  0  4           0  0  0
    5.4693   -1.6353    2.7879 C   0  0  0  0  0  4           0  0  0
  1 12  1  0     0  0
  1 13  1  0     0  0
  2 14  1  0     0  0
  3 15  1  0     0  0
  3 30  1  0     0  0
  4 16  1  0     0  0
  4 32  1  0     0  0
  5 29  2  0     0  0
  6 31  1  0     0  0
  6 33  1  0     0  0
  7 12  2  0     0  0
  7 20  1  0     0  0
  8 17  1  0     0  0
  8 18  2  0     0  0
  9 17  2  0     0  0
  9 19  1  0     0  0
 10 12  1  0     0  0
 10 18  1  0     0  0
 11 21  1  0     0  0
 11 29  1  0     0  0
 13 20  2  0     0  0
 13 34  1  0     0  0
 14 23  2  0     0  0
 14 24  1  0     0  0
 15 16  1  0     0  0
 15 25  2  0     0  0
 16 26  2  0     0  0
 18 22  1  0     0  0
 19 22  2  0     0  0
 19 25  1  0     0  0
 21 23  1  0     0  0
 21 27  2  0     0  0
 22 26  1  0     0  0
 24 28  2  0     0  0
 27 28  1  0     0  0
 29 34  1  0     0  0
 30 31  1  0     0  0
M  END
> <standard_type>
pIC50

> <# Confs.>
25

> <canonical_smiles>
FC1=CC(NC(CC2=CN=C(NC3=NC=NC4=C3C=C(OC)C(OCCOC)=C4)S2)=O)=CC=C1

> <standard_relation>
=

> <Publication_ID>
nan

> <predicted_activity_value>
8.045757490560675

> <actual_activity_value>
8.096910013008056

> <Compound>
4

> <standard_units>
nM

> hash
10565851915682723624

$$$$
4_
XXILIB    08252103493D 0   0.00000     0.00000

 34 37  0     1  0            999 V2000
    3.9192   -0.4544    0.7871 S   0  0  0  0  0  2           0  0  0
    6.9779    3.7398    7.2539 F   0  0  0  0  0  1           0  0  0
   -2.9470   -0.2996   -4.7704 O   0  0  0  0  0  2           0  0  0
   -0.2003   -0.2152   -4.8581 O   0  0  0  0  0  2           0  0  0
    5.2173   -2.1745    5.1128 O   0  0  0  0  0  2           0  0  0
   -6.3815   -0.5046   -5.9297 O   0  0  0  0  0  2           0  0  0
    1.7953   -1.1817    2.0413 N   0  0  0  0  0  3           0  0  0
   -0.6605   -0.0000    1.1845 N   0  0  0  0  0  3           0  0  0
   -2.7579   -0.0594    0.0228 N   0  0  0  0  0  3           0  0  0
    1.4109    0.0000    0.0000 N   0  0  0  0  0  3           0  0  0
    5.9047   -0.0275    4.5366 N   0  0  0  0  0  3           0  0  0
    2.1978   -0.5509    0.9542 C   0  0  0  0  0  4           0  0  0
    4.1207   -1.3110    2.2561 C   0  0  0  0  0  4           0  0  0
    6.5879    2.4602    7.1686 C   0  0  0  0  0  4           0  0  0
   -2.2654   -0.1910   -3.5908 C   0  0  0  0  0  4           0  0  0
   -0.8735   -0.1473   -3.6711 C   0  0  0  0  0  4           0  0  0
   -1.9994   -0.0215    1.1280 C   0  0  0  0  0  4           0  0  0
    0.0000    0.0000    0.0000 C   0  0  0  0  0  4           0  0  0
   -2.1115   -0.0848   -1.1499 C   0  0  0  0  0  4           0  0  0
    2.8804   -1.6141    2.7759 C   0  0  0  0  0  4           0  0  0
    6.0361    0.5368    5.8197 C   0  0  0  0  0  4           0  0  0
   -0.7045   -0.0618   -1.2298 C   0  0  0  0  0  4           0  0  0
    6.4412    1.8720    5.9146 C   0  0  0  0  0  4           0  0  0
    6.3372    1.7424    8.3329 C   0  0  0  0  0  4           0  0  0
   -2.8623   -0.1491   -2.3248 C   0  0  0  0  0  4           0  0  0
   -0.1013   -0.1072   -2.5086 C   0  0  0  0  0  4           0  0  0
    5.7780   -0.1911    6.9893 C   0  0  0  0  0  4           0  0  0
    5.9294    0.4136    8.2407 C   0  0  0  0  0  4           0  0  0
    5.5149   -1.3309    4.2680 C   0  0  0  0  0  4           0  0  0
   -4.3670   -0.3417   -4.6548 C   0  0  0  0  0  4           0  0  0
   -4.9640   -0.4625   -6.0451 C   0  0  0  0  0  4           0  0  0
    0.1459   -1.5294   -5.2881 C   0  0  0  0  0  4           0  0  0
   -7.0085   -0.6178   -7.1999 C   0  0  0  0  0  4           0  0  0
    5.4693   -1.6353    2.7879 C   0  0  0  0  0  4           0  0  0
  1 12  1  0     0  0
  1 13  1  0     0  0
  2 14  1  0     0  0
  3 15  1  0     0  0
  3 30  1  0     0  0
  4 16  1  0     0  0
  4 32  1  0     0  0
  5 29  2  0     0  0
  6 31  1  0     0  0
  6 33  1  0     0  0
  7 12  2  0     0  0
  7 20  1  0     0  0
  8 17  1  0     0  0
  8 18  2  0     0  0
  9 17  2  0     0  0
  9 19  1  0     0  0
 10 12  1  0     0  0
 10 18  1  0     0  0
 11 21  1  0     0  0
 11 29  1  0     0  0
 13 20  2  0     0  0
 13 34  1  0     0  0
 14 23  2  0     0  0
 14 24  1  0     0  0
 15 16  1  0     0  0
 15 25  2  0     0  0
 16 26  2  0     0  0
 18 22  1  0     0  0
 19 22  2  0     0  0
 19 25  1  0     0  0
 21 23  1  0     0  0
 21 27  2  0     0  0
 22 26  1  0     0  0
 24 28  2  0     0  0
 27 28  1  0     0  0
 29 34  1  0     0  0
 30 31  1  0     0  0
M  END
> <standard_type>
pIC50

> <# Confs.>
25

> <canonical_smiles>
FC1=CC(NC(CC2=CN=C(NC3=NC=NC4=C3C=C(OC)C(OCCOC)=C4)S2)=O)=CC=C1

> <standard_relation>
=

> <Publication_ID>
nan

> <predicted_activity_value>
8.045757490560675

> <actual_activity_value>
8.096910013008056

> <Compound>
4

> <standard_units>
nM

> hash
10565851915682723624

$$$$
4_
XXILIB    08252103493D 0   0.00000     0.00000

 34 37  0     1  0            999 V2000
    3.9192   -0.4544    0.7871 S   0  0  0  0  0  2           0  0  0
    9.0636    4.5356    2.4508 F   0  0  0  0  0  1           0  0  0
   -2.9470   -0.2996   -4.7704 O   0  0  0  0  0  2           0  0  0
   -0.2003   -0.2152   -4.8581 O   0  0  0  0  0  2           0  0  0
    5.7054   -0.5065    4.8925 O   0  0  0  0  0  2           0  0  0
   -6.3815   -0.5046   -5.9297 O   0  0  0  0  0  2           0  0  0
    1.7953   -1.1817    2.0413 N   0  0  0  0  0  3           0  0  0
   -0.6605   -0.0000    1.1845 N   0  0  0  0  0  3           0  0  0
   -2.7579   -0.0594    0.0228 N   0  0  0  0  0  3           0  0  0
    1.4109   -0.0000   -0.0000 N   0  0  0  0  0  3           0  0  0
    6.6325    0.4710    2.9954 N   0  0  0  0  0  3           0  0  0
    2.1978   -0.5509    0.9542 C   0  0  0  0  0  4           0  0  0
    4.1207   -1.3110    2.2561 C   0  0  0  0  0  4           0  0  0
    8.4227    3.6815    3.2610 C   0  0  0  0  0  4           0  0  0
   -2.2654   -0.1910   -3.5908 C   0  0  0  0  0  4           0  0  0
   -0.8735   -0.1473   -3.6711 C   0  0  0  0  0  4           0  0  0
   -1.9994   -0.0215    1.1280 C   0  0  0  0  0  4           0  0  0
    0.0000    0.0000    0.0000 C   0  0  0  0  0  4           0  0  0
   -2.1115   -0.0848   -1.1499 C   0  0  0  0  0  4           0  0  0
    2.8804   -1.6141    2.7759 C   0  0  0  0  0  4           0  0  0
    7.1874    1.6313    3.5680 C   0  0  0  0  0  4           0  0  0
   -0.7045   -0.0618   -1.2298 C   0  0  0  0  0  4           0  0  0
    7.8558    2.5268    2.7269 C   0  0  0  0  0  4           0  0  0
    8.3354    3.9627    4.6201 C   0  0  0  0  0  4           0  0  0
   -2.8623   -0.1491   -2.3248 C   0  0  0  0  0  4           0  0  0
   -0.1013   -0.1072   -2.5086 C   0  0  0  0  0  4           0  0  0
    7.0925    1.9107    4.9381 C   0  0  0  0  0  4           0  0  0
    7.6664    3.0743    5.4590 C   0  0  0  0  0  4           0  0  0
    5.9414   -0.5138    3.6850 C   0  0  0  0  0  4           0  0  0
   -4.3670   -0.3417   -4.6548 C   0  0  0  0  0  4           0  0  0
   -4.9640   -0.4625   -6.0451 C   0  0  0  0  0  4           0  0  0
    0.0539    1.0384   -5.4872 C   0  0  0  0  0  4           0  0  0
   -7.0085   -0.6178   -7.1999 C   0  0  0  0  0  4           0  0  0
    5.4693   -1.6353    2.7879 C   0  0  0  0  0  4           0  0  0
  1 12  1  0     0  0
  1 13  1  0     0  0
  2 14  1  0     0  0
  3 15  1  0     0  0
  3 30  1  0     0  0
  4 16  1  0     0  0
  4 32  1  0     0  0
  5 29  2  0     0  0
  6 31  1  0     0  0
  6 33  1  0     0  0
  7 12  2  0     0  0
  7 20  1  0     0  0
  8 17  1  0     0  0
  8 18  2  0     0  0
  9 17  2  0     0  0
  9 19  1  0     0  0
 10 12  1  0     0  0
 10 18  1  0     0  0
 11 21  1  0     0  0
 11 29  1  0     0  0
 13 20  2  0     0  0
 13 34  1  0     0  0
 14 23  2  0     0  0
 14 24  1  0     0  0
 15 16  1  0     0  0
 15 25  2  0     0  0
 16 26  2  0     0  0
 18 22  1  0     0  0
 19 22  2  0     0  0
 19 25  1  0     0  0
 21 23  1  0     0  0
 21 27  2  0     0  0
 22 26  1  0     0  0
 24 28  2  0     0  0
 27 28  1  0     0  0
 29 34  1  0     0  0
 30 31  1  0     0  0
M  END
> <standard_type>
pIC50

> <# Confs.>
25

> <canonical_smiles>
FC1=CC(NC(CC2=CN=C(NC3=NC=NC4=C3C=C(OC)C(OCCOC)=C4)S2)=O)=CC=C1

> <standard_relation>
=

> <Publication_ID>
nan

> <predicted_activity_value>
8.045757490560675

> <actual_activity_value>
8.096910013008056

> <Compound>
4

> <standard_units>
nM

> hash
10565851915682723624

$$$$
4_
XXILIB    08252103493D 0   0.00000     0.00000

 34 37  0     1  0            999 V2000
    3.9192    0.4544    0.7871 S   0  0  0  0  0  2           0  0  0
    6.9779    8.1520    0.3882 F   0  0  0  0  0  1           0  0  0
   -2.9470   -0.2996   -4.7704 O   0  0  0  0  0  2           0  0  0
   -0.2003   -0.2152   -4.8581 O   0  0  0  0  0  2           0  0  0
    5.2173    3.3406    4.4396 O   0  0  0  0  0  2           0  0  0
   -6.3815   -0.5046   -5.9297 O   0  0  0  0  0  2           0  0  0
    1.7953    1.1769    2.0440 N   0  0  0  0  0  3           0  0  0
   -0.6605   -0.0000    1.1845 N   0  0  0  0  0  3           0  0  0
   -2.7579   -0.0594    0.0228 N   0  0  0  0  0  3           0  0  0
    1.4109    0.0000    0.0000 N   0  0  0  0  0  3           0  0  0
    5.9047    3.9151    2.2921 N   0  0  0  0  0  3           0  0  0
    2.1978    0.5509    0.9542 C   0  0  0  0  0  4           0  0  0
    4.1207    1.2983    2.2634 C   0  0  0  0  0  4           0  0  0
    6.5879    7.4383    1.4537 C   0  0  0  0  0  4           0  0  0
   -2.2654   -0.1910   -3.5908 C   0  0  0  0  0  4           0  0  0
   -0.8735   -0.1473   -3.6711 C   0  0  0  0  0  4           0  0  0
   -1.9994   -0.0215    1.1280 C   0  0  0  0  0  4           0  0  0
    0.0000    0.0000    0.0000 C   0  0  0  0  0  4           0  0  0
   -2.1115   -0.0848   -1.1499 C   0  0  0  0  0  4           0  0  0
    2.8804    1.5970    2.7858 C   0  0  0  0  0  4           0  0  0
    6.0361    5.3085    2.4450 C   0  0  0  0  0  4           0  0  0
   -0.7045   -0.0618   -1.2298 C   0  0  0  0  0  4           0  0  0
    6.4412    6.0582    1.3361 C   0  0  0  0  0  4           0  0  0
    6.3372    8.0877    2.6575 C   0  0  0  0  0  4           0  0  0
   -2.8623   -0.1491   -2.3248 C   0  0  0  0  0  4           0  0  0
   -0.1013   -0.1072   -2.5086 C   0  0  0  0  0  4           0  0  0
    5.7780    5.9573    3.6601 C   0  0  0  0  0  4           0  0  0
    5.9294    7.3434    3.7622 C   0  0  0  0  0  4           0  0  0
    5.5149    3.0307    3.2866 C   0  0  0  0  0  4           0  0  0
   -4.3670   -0.3417   -4.6548 C   0  0  0  0  0  4           0  0  0
   -4.9640   -0.4625   -6.0451 C   0  0  0  0  0  4           0  0  0
    0.0539    1.0384   -5.4872 C   0  0  0  0  0  4           0  0  0
   -7.0085   -0.6178   -7.1999 C   0  0  0  0  0  4           0  0  0
    5.4693    1.5968    2.8102 C   0  0  0  0  0  4           0  0  0
  1 12  1  0     0  0
  1 13  1  0     0  0
  2 14  1  0     0  0
  3 15  1  0     0  0
  3 30  1  0     0  0
  4 16  1  0     0  0
  4 32  1  0     0  0
  5 29  2  0     0  0
  6 31  1  0     0  0
  6 33  1  0     0  0
  7 12  2  0     0  0
  7 20  1  0     0  0
  8 17  1  0     0  0
  8 18  2  0     0  0
  9 17  2  0     0  0
  9 19  1  0     0  0
 10 12  1  0     0  0
 10 18  1  0     0  0
 11 21  1  0     0  0
 11 29  1  0     0  0
 13 20  2  0     0  0
 13 34  1  0     0  0
 14 23  2  0     0  0
 14 24  1  0     0  0
 15 16  1  0     0  0
 15 25  2  0     0  0
 16 26  2  0     0  0
 18 22  1  0     0  0
 19 22  2  0     0  0
 19 25  1  0     0  0
 21 23  1  0     0  0
 21 27  2  0     0  0
 22 26  1  0     0  0
 24 28  2  0     0  0
 27 28  1  0     0  0
 29 34  1  0     0  0
 30 31  1  0     0  0
M  END
> <standard_type>
pIC50

> <# Confs.>
25

> <canonical_smiles>
FC1=CC(NC(CC2=CN=C(NC3=NC=NC4=C3C=C(OC)C(OCCOC)=C4)S2)=O)=CC=C1

> <standard_relation>
=

> <Publication_ID>
nan

> <predicted_activity_value>
8.045757490560675

> <actual_activity_value>
8.096910013008056

> <Compound>
4

> <standard_units>
nM

> hash
10565851915682723624

$$$$
4_
XXILIB    08252103493D 0   0.00000     0.00000

 34 37  0     1  0            999 V2000
    3.9192   -0.4544    0.7871 S   0  0  0  0  0  2           0  0  0
    4.6164    3.8392    7.3062 F   0  0  0  0  0  1           0  0  0
   -2.9470   -0.2996   -4.7704 O   0  0  0  0  0  2           0  0  0
   -0.2003   -0.2152   -4.8581 O   0  0  0  0  0  2           0  0  0
    5.7578   -2.2024    5.1019 O   0  0  0  0  0  2           0  0  0
   -6.3815   -0.5046   -5.9297 O   0  0  0  0  0  2           0  0  0
    1.7953   -1.1817    2.0413 N   0  0  0  0  0  3           0  0  0
   -0.6605   -0.0000    1.1845 N   0  0  0  0  0  3           0  0  0
   -2.7579   -0.0594    0.0228 N   0  0  0  0  0  3           0  0  0
    1.4109   -0.0000   -0.0000 N   0  0  0  0  0  3           0  0  0
    5.2437   -0.0008    4.5515 N   0  0  0  0  0  3           0  0  0
    2.1978   -0.5509    0.9542 C   0  0  0  0  0  4           0  0  0
    4.1207   -1.3110    2.2561 C   0  0  0  0  0  4           0  0  0
    4.8950    2.5318    7.2060 C   0  0  0  0  0  4           0  0  0
   -2.2654   -0.1910   -3.5908 C   0  0  0  0  0  4           0  0  0
   -0.8735   -0.1473   -3.6711 C   0  0  0  0  0  4           0  0  0
   -1.9994   -0.0215    1.1280 C   0  0  0  0  0  4           0  0  0
    0.0000    0.0000    0.0000 C   0  0  0  0  0  4           0  0  0
   -2.1115   -0.0848   -1.1499 C   0  0  0  0  0  4           0  0  0
    2.8804   -1.6141    2.7759 C   0  0  0  0  0  4           0  0  0
    5.2159    0.5699    5.8382 C   0  0  0  0  0  4           0  0  0
   -0.7045   -0.0618   -1.2298 C   0  0  0  0  0  4           0  0  0
    4.9242    1.9332    5.9488 C   0  0  0  0  0  4           0  0  0
    5.1504    1.7966    8.3583 C   0  0  0  0  0  4           0  0  0
   -2.8623   -0.1491   -2.3248 C   0  0  0  0  0  4           0  0  0
   -0.1013   -0.1072   -2.5086 C   0  0  0  0  0  4           0  0  0
    5.4705   -0.1778    6.9960 C   0  0  0  0  0  4           0  0  0
    5.4370    0.4376    8.2509 C   0  0  0  0  0  4           0  0  0
    5.5149   -1.3309    4.2680 C   0  0  0  0  0  4           0  0  0
   -4.3670   -0.3417   -4.6548 C   0  0  0  0  0  4           0  0  0
   -4.9640   -0.4625   -6.0451 C   0  0  0  0  0  4           0  0  0
    0.0539    1.0384   -5.4872 C   0  0  0  0  0  4           0  0  0
   -7.0085   -0.6178   -7.1999 C   0  0  0  0  0  4           0  0  0
    5.4693   -1.6353    2.7879 C   0  0  0  0  0  4           0  0  0
  1 12  1  0     0  0
  1 13  1  0     0  0
  2 14  1  0     0  0
  3 15  1  0     0  0
  3 30  1  0     0  0
  4 16  1  0     0  0
  4 32  1  0     0  0
  5 29  2  0     0  0
  6 31  1  0     0  0
  6 33  1  0     0  0
  7 12  2  0     0  0
  7 20  1  0     0  0
  8 17  1  0     0  0
  8 18  2  0     0  0
  9 17  2  0     0  0
  9 19  1  0     0  0
 10 12  1  0     0  0
 10 18  1  0     0  0
 11 21  1  0     0  0
 11 29  1  0     0  0
 13 20  2  0     0  0
 13 34  1  0     0  0
 14 23  2  0     0  0
 14 24  1  0     0  0
 15 16  1  0     0  0
 15 25  2  0     0  0
 16 26  2  0     0  0
 18 22  1  0     0  0
 19 22  2  0     0  0
 19 25  1  0     0  0
 21 23  1  0     0  0
 21 27  2  0     0  0
 22 26  1  0     0  0
 24 28  2  0     0  0
 27 28  1  0     0  0
 29 34  1  0     0  0
 30 31  1  0     0  0
M  END
> <standard_type>
pIC50

> <# Confs.>
25

> <canonical_smiles>
FC1=CC(NC(CC2=CN=C(NC3=NC=NC4=C3C=C(OC)C(OCCOC)=C4)S2)=O)=CC=C1

> <standard_relation>
=

> <Publication_ID>
nan

> <predicted_activity_value>
8.045757490560675

> <actual_activity_value>
8.096910013008056

> <Compound>
4

> <standard_units>
nM

> hash
10565851915682723624

$$$$
4_
XXILIB    08252103493D 0   0.00000     0.00000

 34 37  0     1  0            999 V2000
    3.9192   -0.4544    0.7871 S   0  0  0  0  0  2           0  0  0
   10.7302   -4.5441   -1.0817 F   0  0  0  0  0  1           0  0  0
   -2.9470   -0.2996   -4.7704 O   0  0  0  0  0  2           0  0  0
   -0.2003   -0.2152   -4.8581 O   0  0  0  0  0  2           0  0  0
    5.2758   -4.0062    2.4711 O   0  0  0  0  0  2           0  0  0
   -6.3815   -0.5046   -5.9297 O   0  0  0  0  0  2           0  0  0
    1.7953   -1.1817    2.0413 N   0  0  0  0  0  3           0  0  0
   -0.6605   -0.0000    1.1845 N   0  0  0  0  0  3           0  0  0
   -2.7579   -0.0594    0.0228 N   0  0  0  0  0  3           0  0  0
    1.4109    0.0000   -0.0000 N   0  0  0  0  0  3           0  0  0
    7.0930   -2.9020    1.5263 N   0  0  0  0  0  3           0  0  0
    2.1978   -0.5509    0.9542 C   0  0  0  0  0  4           0  0  0
    4.1207   -1.3110    2.2561 C   0  0  0  0  0  4           0  0  0
    9.5945   -4.7894   -0.4134 C   0  0  0  0  0  4           0  0  0
   -2.2654   -0.1910   -3.5908 C   0  0  0  0  0  4           0  0  0
   -0.8735   -0.1473   -3.6711 C   0  0  0  0  0  4           0  0  0
   -1.9994   -0.0215    1.1280 C   0  0  0  0  0  4           0  0  0
    0.0000    0.0000    0.0000 C   0  0  0  0  0  4           0  0  0
   -2.1115   -0.0848   -1.1499 C   0  0  0  0  0  4           0  0  0
    2.8804   -1.6141    2.7759 C   0  0  0  0  0  4           0  0  0
    7.7428   -3.9887    0.9106 C   0  0  0  0  0  4           0  0  0
   -0.7045   -0.0618   -1.2298 C   0  0  0  0  0  4           0  0  0
    8.9290   -3.7386    0.2134 C   0  0  0  0  0  4           0  0  0
    9.1003   -6.0881   -0.3580 C   0  0  0  0  0  4           0  0  0
   -2.8623   -0.1491   -2.3248 C   0  0  0  0  0  4           0  0  0
   -0.1013   -0.1072   -2.5086 C   0  0  0  0  0  4           0  0  0
    7.2414   -5.2959    0.9736 C   0  0  0  0  0  4           0  0  0
    7.9212   -6.3402    0.3395 C   0  0  0  0  0  4           0  0  0
    5.9139   -2.9772    2.2524 C   0  0  0  0  0  4           0  0  0
   -4.3670   -0.3417   -4.6548 C   0  0  0  0  0  4           0  0  0
   -4.9640   -0.4625   -6.0451 C   0  0  0  0  0  4           0  0  0
    0.1459   -1.5294   -5.2881 C   0  0  0  0  0  4           0  0  0
   -7.0085   -0.6178   -7.1999 C   0  0  0  0  0  4           0  0  0
    5.4693   -1.6353    2.7879 C   0  0  0  0  0  4           0  0  0
  1 12  1  0     0  0
  1 13  1  0     0  0
  2 14  1  0     0  0
  3 15  1  0     0  0
  3 30  1  0     0  0
  4 16  1  0     0  0
  4 32  1  0     0  0
  5 29  2  0     0  0
  6 31  1  0     0  0
  6 33  1  0     0  0
  7 12  2  0     0  0
  7 20  1  0     0  0
  8 17  1  0     0  0
  8 18  2  0     0  0
  9 17  2  0     0  0
  9 19  1  0     0  0
 10 12  1  0     0  0
 10 18  1  0     0  0
 11 21  1  0     0  0
 11 29  1  0     0  0
 13 20  2  0     0  0
 13 34  1  0     0  0
 14 23  2  0     0  0
 14 24  1  0     0  0
 15 16  1  0     0  0
 15 25  2  0     0  0
 16 26  2  0     0  0
 18 22  1  0     0  0
 19 22  2  0     0  0
 19 25  1  0     0  0
 21 23  1  0     0  0
 21 27  2  0     0  0
 22 26  1  0     0  0
 24 28  2  0     0  0
 27 28  1  0     0  0
 29 34  1  0     0  0
 30 31  1  0     0  0
M  END
> <standard_type>
pIC50

> <# Confs.>
25

> <canonical_smiles>
FC1=CC(NC(CC2=CN=C(NC3=NC=NC4=C3C=C(OC)C(OCCOC)=C4)S2)=O)=CC=C1

> <standard_relation>
=

> <Publication_ID>
nan

> <predicted_activity_value>
8.045757490560675

> <actual_activity_value>
8.096910013008056

> <Compound>
4

> <standard_units>
nM

> hash
10565851915682723624

$$$$
4_
XXILIB    08252103493D 0   0.00000     0.00000

 34 37  0     1  0            999 V2000
    3.9192   -0.4544    0.7871 S   0  0  0  0  0  2           0  0  0
    9.0398   -4.4456   -2.7316 F   0  0  0  0  0  1           0  0  0
   -2.9470   -0.2996   -4.7704 O   0  0  0  0  0  2           0  0  0
   -0.2003   -0.2152   -4.8581 O   0  0  0  0  0  2           0  0  0
    5.6662   -4.0264    2.8455 O   0  0  0  0  0  2           0  0  0
   -5.7018   -2.3488   -5.9510 O   0  0  0  0  0  2           0  0  0
    1.7953   -1.1817    2.0413 N   0  0  0  0  0  3           0  0  0
   -0.6605    0.0000    1.1845 N   0  0  0  0  0  3           0  0  0
   -2.7579   -0.0594    0.0228 N   0  0  0  0  0  3           0  0  0
    1.4109   -0.0000    0.0000 N   0  0  0  0  0  3           0  0  0
    6.6206   -2.8739    1.0637 N   0  0  0  0  0  3           0  0  0
    2.1978   -0.5509    0.9542 C   0  0  0  0  0  4           0  0  0
    4.1207   -1.3110    2.2561 C   0  0  0  0  0  4           0  0  0
    8.3824   -4.7190   -1.5959 C   0  0  0  0  0  4           0  0  0
   -2.2654   -0.1910   -3.5908 C   0  0  0  0  0  4           0  0  0
   -0.8735   -0.1473   -3.6711 C   0  0  0  0  0  4           0  0  0
   -1.9994   -0.0215    1.1280 C   0  0  0  0  0  4           0  0  0
    0.0000   -0.0000    0.0000 C   0  0  0  0  0  4           0  0  0
   -2.1115   -0.0848   -1.1499 C   0  0  0  0  0  4           0  0  0
    2.8804   -1.6141    2.7759 C   0  0  0  0  0  4           0  0  0
    7.1567   -3.9538    0.3367 C   0  0  0  0  0  4           0  0  0
   -0.7045   -0.0618   -1.2298 C   0  0  0  0  0  4           0  0  0
    7.8450   -3.6741   -0.8482 C   0  0  0  0  0  4           0  0  0
    8.2480   -6.0406   -1.1846 C   0  0  0  0  0  4           0  0  0
   -2.8623   -0.1491   -2.3248 C   0  0  0  0  0  4           0  0  0
   -0.1013   -0.1072   -2.5086 C   0  0  0  0  0  4           0  0  0
    7.0210   -5.2833    0.7590 C   0  0  0  0  0  4           0  0  0
    7.5666   -6.3212   -0.0025 C   0  0  0  0  0  4           0  0  0
    5.9139   -2.9772    2.2524 C   0  0  0  0  0  4           0  0  0
   -4.1948   -0.9842   -4.6951 C   0  0  0  0  0  4           0  0  0
   -4.4561   -1.6654   -6.0262 C   0  0  0  0  0  4           0  0  0
    0.0539    1.0384   -5.4872 C   0  0  0  0  0  4           0  0  0
   -6.0110   -3.0123   -7.1690 C   0  0  0  0  0  4           0  0  0
    5.4693   -1.6353    2.7879 C   0  0  0  0  0  4           0  0  0
  1 12  1  0     0  0
  1 13  1  0     0  0
  2 14  1  0     0  0
  3 15  1  0     0  0
  3 30  1  0     0  0
  4 16  1  0     0  0
  4 32  1  0     0  0
  5 29  2  0     0  0
  6 31  1  0     0  0
  6 33  1  0     0  0
  7 12  2  0     0  0
  7 20  1  0     0  0
  8 17  1  0     0  0
  8 18  2  0     0  0
  9 17  2  0     0  0
  9 19  1  0     0  0
 10 12  1  0     0  0
 10 18  1  0     0  0
 11 21  1  0     0  0
 11 29  1  0     0  0
 13 20  2  0     0  0
 13 34  1  0     0  0
 14 23  2  0     0  0
 14 24  1  0     0  0
 15 16  1  0     0  0
 15 25  2  0     0  0
 16 26  2  0     0  0
 18 22  1  0     0  0
 19 22  2  0     0  0
 19 25  1  0     0  0
 21 23  1  0     0  0
 21 27  2  0     0  0
 22 26  1  0     0  0
 24 28  2  0     0  0
 27 28  1  0     0  0
 29 34  1  0     0  0
 30 31  1  0     0  0
M  END
> <standard_type>
pIC50

> <# Confs.>
25

> <canonical_smiles>
FC1=CC(NC(CC2=CN=C(NC3=NC=NC4=C3C=C(OC)C(OCCOC)=C4)S2)=O)=CC=C1

> <standard_relation>
=

> <Publication_ID>
nan

> <predicted_activity_value>
8.045757490560675

> <actual_activity_value>
8.096910013008056

> <Compound>
4

> <standard_units>
nM

> hash
10565851915682723624

$$$$
4_
XXILIB    08252103493D 0   0.00000     0.00000

 34 37  0     1  0            999 V2000
    3.9192    0.4544    0.7871 S   0  0  0  0  0  2           0  0  0
    5.3099    8.5369    4.5193 F   0  0  0  0  0  1           0  0  0
   -2.9470   -0.2996   -4.7704 O   0  0  0  0  0  2           0  0  0
   -0.2003   -0.2152   -4.8581 O   0  0  0  0  0  2           0  0  0
    6.5822    3.0323    1.2418 O   0  0  0  0  0  2           0  0  0
   -6.3815   -0.5046   -5.9297 O   0  0  0  0  0  2           0  0  0
    1.7953    1.1769    2.0440 N   0  0  0  0  0  3           0  0  0
   -0.6605   -0.0000    1.1845 N   0  0  0  0  0  3           0  0  0
   -2.7579   -0.0594    0.0228 N   0  0  0  0  0  3           0  0  0
    1.4109   -0.0000    0.0000 N   0  0  0  0  0  3           0  0  0
    5.5857    3.9899    3.1137 N   0  0  0  0  0  3           0  0  0
    2.1978    0.5509    0.9542 C   0  0  0  0  0  4           0  0  0
    4.1207    1.2983    2.2634 C   0  0  0  0  0  4           0  0  0
    5.7305    7.6377    3.6186 C   0  0  0  0  0  4           0  0  0
   -2.2654   -0.1910   -3.5908 C   0  0  0  0  0  4           0  0  0
   -0.8735   -0.1473   -3.6711 C   0  0  0  0  0  4           0  0  0
   -1.9994   -0.0215    1.1280 C   0  0  0  0  0  4           0  0  0
    0.0000    0.0000    0.0000 C   0  0  0  0  0  4           0  0  0
   -2.1115   -0.0848   -1.1499 C   0  0  0  0  0  4           0  0  0
    2.8804    1.5970    2.7858 C   0  0  0  0  0  4           0  0  0
    5.8888    5.3451    2.8822 C   0  0  0  0  0  4           0  0  0
   -0.7045   -0.0618   -1.2298 C   0  0  0  0  0  4           0  0  0
    5.4539    6.2875    3.8196 C   0  0  0  0  0  4           0  0  0
    6.4346    8.0683    2.4995 C   0  0  0  0  0  4           0  0  0
   -2.8623   -0.1491   -2.3248 C   0  0  0  0  0  4           0  0  0
   -0.1013   -0.1072   -2.5086 C   0  0  0  0  0  4           0  0  0
    6.6024    5.7720    1.7540 C   0  0  0  0  0  4           0  0  0
    6.8725    7.1309    1.5667 C   0  0  0  0  0  4           0  0  0
    5.9414    2.9344    2.2875 C   0  0  0  0  0  4           0  0  0
   -4.3670   -0.3417   -4.6548 C   0  0  0  0  0  4           0  0  0
   -4.9640   -0.4625   -6.0451 C   0  0  0  0  0  4           0  0  0
    0.0539    1.0384   -5.4872 C   0  0  0  0  0  4           0  0  0
   -7.0085   -0.6178   -7.1999 C   0  0  0  0  0  4           0  0  0
    5.4693    1.5968    2.8102 C   0  0  0  0  0  4           0  0  0
  1 12  1  0     0  0
  1 13  1  0     0  0
  2 14  1  0     0  0
  3 15  1  0     0  0
  3 30  1  0     0  0
  4 16  1  0     0  0
  4 32  1  0     0  0
  5 29  2  0     0  0
  6 31  1  0     0  0
  6 33  1  0     0  0
  7 12  2  0     0  0
  7 20  1  0     0  0
  8 17  1  0     0  0
  8 18  2  0     0  0
  9 17  2  0     0  0
  9 19  1  0     0  0
 10 12  1  0     0  0
 10 18  1  0     0  0
 11 21  1  0     0  0
 11 29  1  0     0  0
 13 20  2  0     0  0
 13 34  1  0     0  0
 14 23  2  0     0  0
 14 24  1  0     0  0
 15 16  1  0     0  0
 15 25  2  0     0  0
 16 26  2  0     0  0
 18 22  1  0     0  0
 19 22  2  0     0  0
 19 25  1  0     0  0
 21 23  1  0     0  0
 21 27  2  0     0  0
 22 26  1  0     0  0
 24 28  2  0     0  0
 27 28  1  0     0  0
 29 34  1  0     0  0
 30 31  1  0     0  0
M  END
> <standard_type>
pIC50

> <# Confs.>
25

> <canonical_smiles>
FC1=CC(NC(CC2=CN=C(NC3=NC=NC4=C3C=C(OC)C(OCCOC)=C4)S2)=O)=CC=C1

> <standard_relation>
=

> <Publication_ID>
nan

> <predicted_activity_value>
8.045757490560675

> <actual_activity_value>
8.096910013008056

> <Compound>
4

> <standard_units>
nM

> hash
10565851915682723624

$$$$
4_
XXILIB    08252103493D 0   0.00000     0.00000

 34 37  0     1  0            999 V2000
    3.9192   -0.4544    0.7871 S   0  0  0  0  0  2           0  0  0
    4.5682   -8.2592    0.2534 F   0  0  0  0  0  1           0  0  0
   -2.9470   -0.2996   -4.7704 O   0  0  0  0  0  2           0  0  0
   -0.2003   -0.2152   -4.8581 O   0  0  0  0  0  2           0  0  0
    5.7448   -3.3707    4.4224 O   0  0  0  0  0  2           0  0  0
   -6.3815   -0.5046   -5.9297 O   0  0  0  0  0  2           0  0  0
    1.7953   -1.1817    2.0413 N   0  0  0  0  0  3           0  0  0
   -0.6605   -0.0000    1.1845 N   0  0  0  0  0  3           0  0  0
   -2.7579   -0.0594    0.0228 N   0  0  0  0  0  3           0  0  0
    1.4109    0.0000   -0.0000 N   0  0  0  0  0  3           0  0  0
    5.2282   -3.9739    2.2353 N   0  0  0  0  0  3           0  0  0
    2.1978   -0.5509    0.9542 C   0  0  0  0  0  4           0  0  0
    4.1207   -1.3110    2.2561 C   0  0  0  0  0  4           0  0  0
    4.8434   -7.5290    1.3432 C   0  0  0  0  0  4           0  0  0
   -2.2654   -0.1910   -3.5908 C   0  0  0  0  0  4           0  0  0
   -0.8735   -0.1473   -3.6711 C   0  0  0  0  0  4           0  0  0
   -1.9994   -0.0215    1.1280 C   0  0  0  0  0  4           0  0  0
    0.0000    0.0000    0.0000 C   0  0  0  0  0  4           0  0  0
   -2.1115   -0.0848   -1.1499 C   0  0  0  0  0  4           0  0  0
    2.8804   -1.6141    2.7759 C   0  0  0  0  0  4           0  0  0
    5.1854   -5.3742    2.3744 C   0  0  0  0  0  4           0  0  0
   -0.7045   -0.0618   -1.2298 C   0  0  0  0  0  4           0  0  0
    4.9003   -6.1411    1.2402 C   0  0  0  0  0  4           0  0  0
    5.0667   -8.1693    2.5573 C   0  0  0  0  0  4           0  0  0
   -2.8623   -0.1491   -2.3248 C   0  0  0  0  0  4           0  0  0
   -0.1013   -0.1072   -2.5086 C   0  0  0  0  0  4           0  0  0
    5.4153   -6.0136    3.6003 C   0  0  0  0  0  4           0  0  0
    5.3551   -7.4077    3.6874 C   0  0  0  0  0  4           0  0  0
    5.4955   -3.0728    3.2550 C   0  0  0  0  0  4           0  0  0
   -4.3670   -0.3417   -4.6548 C   0  0  0  0  0  4           0  0  0
   -4.9640   -0.4625   -6.0451 C   0  0  0  0  0  4           0  0  0
    0.1459   -1.5294   -5.2881 C   0  0  0  0  0  4           0  0  0
   -7.0085   -0.6178   -7.1999 C   0  0  0  0  0  4           0  0  0
    5.4693   -1.6353    2.7879 C   0  0  0  0  0  4           0  0  0
  1 12  1  0     0  0
  1 13  1  0     0  0
  2 14  1  0     0  0
  3 15  1  0     0  0
  3 30  1  0     0  0
  4 16  1  0     0  0
  4 32  1  0     0  0
  5 29  2  0     0  0
  6 31  1  0     0  0
  6 33  1  0     0  0
  7 12  2  0     0  0
  7 20  1  0     0  0
  8 17  1  0     0  0
  8 18  2  0     0  0
  9 17  2  0     0  0
  9 19  1  0     0  0
 10 12  1  0     0  0
 10 18  1  0     0  0
 11 21  1  0     0  0
 11 29  1  0     0  0
 13 20  2  0     0  0
 13 34  1  0     0  0
 14 23  2  0     0  0
 14 24  1  0     0  0
 15 16  1  0     0  0
 15 25  2  0     0  0
 16 26  2  0     0  0
 18 22  1  0     0  0
 19 22  2  0     0  0
 19 25  1  0     0  0
 21 23  1  0     0  0
 21 27  2  0     0  0
 22 26  1  0     0  0
 24 28  2  0     0  0
 27 28  1  0     0  0
 29 34  1  0     0  0
 30 31  1  0     0  0
M  END
> <standard_type>
pIC50

> <# Confs.>
25

> <canonical_smiles>
FC1=CC(NC(CC2=CN=C(NC3=NC=NC4=C3C=C(OC)C(OCCOC)=C4)S2)=O)=CC=C1

> <standard_relation>
=

> <Publication_ID>
nan

> <predicted_activity_value>
8.045757490560675

> <actual_activity_value>
8.096910013008056

> <Compound>
4

> <standard_units>
nM

> hash
10565851915682723624

$$$$
4_
XXILIB    08252103493D 0   0.00000     0.00000

 34 37  0     1  0            999 V2000
    3.9192   -0.4544    0.7871 S   0  0  0  0  0  2           0  0  0
    6.9300   -8.1898    0.3348 F   0  0  0  0  0  1           0  0  0
   -2.9470   -0.2996   -4.7704 O   0  0  0  0  0  2           0  0  0
   -0.2003   -0.2152   -4.8581 O   0  0  0  0  0  2           0  0  0
    5.2039   -3.3850    4.4088 O   0  0  0  0  0  2           0  0  0
   -5.8335    1.3612   -6.2167 O   0  0  0  0  0  2           0  0  0
    1.7953   -1.1817    2.0413 N   0  0  0  0  0  3           0  0  0
   -0.6605    0.0000    1.1845 N   0  0  0  0  0  3           0  0  0
   -2.7579   -0.0594    0.0228 N   0  0  0  0  0  3           0  0  0
    1.4109   -0.0000    0.0000 N   0  0  0  0  0  3           0  0  0
    5.8892   -3.9541    2.2593 N   0  0  0  0  0  3           0  0  0
    2.1978   -0.5509    0.9542 C   0  0  0  0  0  4           0  0  0
    4.1207   -1.3110    2.2561 C   0  0  0  0  0  4           0  0  0
    6.5365   -7.4793    1.4012 C   0  0  0  0  0  4           0  0  0
   -2.2654   -0.1910   -3.5908 C   0  0  0  0  0  4           0  0  0
   -0.8735   -0.1473   -3.6711 C   0  0  0  0  0  4           0  0  0
   -1.9994   -0.0215    1.1280 C   0  0  0  0  0  4           0  0  0
    0.0000    0.0000    0.0000 C   0  0  0  0  0  4           0  0  0
   -2.1115   -0.0848   -1.1499 C   0  0  0  0  0  4           0  0  0
    2.8804   -1.6141    2.7759 C   0  0  0  0  0  4           0  0  0
    6.0056   -5.3496    2.4041 C   0  0  0  0  0  4           0  0  0
   -0.7045   -0.0618   -1.2298 C   0  0  0  0  0  4           0  0  0
    6.4173   -6.0957    1.2951 C   0  0  0  0  0  4           0  0  0
    6.2539   -8.1357    2.5941 C   0  0  0  0  0  4           0  0  0
   -2.8623   -0.1491   -2.3248 C   0  0  0  0  0  4           0  0  0
   -0.1013   -0.1072   -2.5086 C   0  0  0  0  0  4           0  0  0
    5.7229   -6.0047    3.6105 C   0  0  0  0  0  4           0  0  0
    5.8478   -7.3942    3.7012 C   0  0  0  0  0  4           0  0  0
    5.4955   -3.0728    3.2550 C   0  0  0  0  0  4           0  0  0
   -4.2404    0.2990   -4.7869 C   0  0  0  0  0  4           0  0  0
   -4.5423    0.7636   -6.2001 C   0  0  0  0  0  4           0  0  0
    0.1459   -1.5294   -5.2881 C   0  0  0  0  0  4           0  0  0
   -6.1826    1.8211   -7.5151 C   0  0  0  0  0  4           0  0  0
    5.4693   -1.6353    2.7879 C   0  0  0  0  0  4           0  0  0
  1 12  1  0     0  0
  1 13  1  0     0  0
  2 14  1  0     0  0
  3 15  1  0     0  0
  3 30  1  0     0  0
  4 16  1  0     0  0
  4 32  1  0     0  0
  5 29  2  0     0  0
  6 31  1  0     0  0
  6 33  1  0     0  0
  7 12  2  0     0  0
  7 20  1  0     0  0
  8 17  1  0     0  0
  8 18  2  0     0  0
  9 17  2  0     0  0
  9 19  1  0     0  0
 10 12  1  0     0  0
 10 18  1  0     0  0
 11 21  1  0     0  0
 11 29  1  0     0  0
 13 20  2  0     0  0
 13 34  1  0     0  0
 14 23  2  0     0  0
 14 24  1  0     0  0
 15 16  1  0     0  0
 15 25  2  0     0  0
 16 26  2  0     0  0
 18 22  1  0     0  0
 19 22  2  0     0  0
 19 25  1  0     0  0
 21 23  1  0     0  0
 21 27  2  0     0  0
 22 26  1  0     0  0
 24 28  2  0     0  0
 27 28  1  0     0  0
 29 34  1  0     0  0
 30 31  1  0     0  0
M  END
> <standard_type>
pIC50

> <# Confs.>
25

> <canonical_smiles>
FC1=CC(NC(CC2=CN=C(NC3=NC=NC4=C3C=C(OC)C(OCCOC)=C4)S2)=O)=CC=C1

> <standard_relation>
=

> <Publication_ID>
nan

> <predicted_activity_value>
8.045757490560675

> <actual_activity_value>
8.096910013008056

> <Compound>
4

> <standard_units>
nM

> hash
10565851915682723624

$$$$
4_
XXILIB    08252103493D 0   0.00000     0.00000

 34 37  0     1  0            999 V2000
    3.9192   -0.4544    0.7871 S   0  0  0  0  0  2           0  0  0
    6.9300   -8.1898    0.3348 F   0  0  0  0  0  1           0  0  0
   -2.9470   -0.2996   -4.7704 O   0  0  0  0  0  2           0  0  0
   -0.2003   -0.2152   -4.8581 O   0  0  0  0  0  2           0  0  0
    5.2039   -3.3850    4.4088 O   0  0  0  0  0  2           0  0  0
   -5.7018   -2.3488   -5.9510 O   0  0  0  0  0  2           0  0  0
    1.7953   -1.1817    2.0413 N   0  0  0  0  0  3           0  0  0
   -0.6605    0.0000    1.1845 N   0  0  0  0  0  3           0  0  0
   -2.7579   -0.0594    0.0228 N   0  0  0  0  0  3           0  0  0
    1.4109   -0.0000    0.0000 N   0  0  0  0  0  3           0  0  0
    5.8892   -3.9541    2.2593 N   0  0  0  0  0  3           0  0  0
    2.1978   -0.5509    0.9542 C   0  0  0  0  0  4           0  0  0
    4.1207   -1.3110    2.2561 C   0  0  0  0  0  4           0  0  0
    6.5365   -7.4793    1.4012 C   0  0  0  0  0  4           0  0  0
   -2.2654   -0.1910   -3.5908 C   0  0  0  0  0  4           0  0  0
   -0.8735   -0.1473   -3.6711 C   0  0  0  0  0  4           0  0  0
   -1.9994   -0.0215    1.1280 C   0  0  0  0  0  4           0  0  0
    0.0000   -0.0000    0.0000 C   0  0  0  0  0  4           0  0  0
   -2.1115   -0.0848   -1.1499 C   0  0  0  0  0  4           0  0  0
    2.8804   -1.6141    2.7759 C   0  0  0  0  0  4           0  0  0
    6.0056   -5.3496    2.4041 C   0  0  0  0  0  4           0  0  0
   -0.7045   -0.0618   -1.2298 C   0  0  0  0  0  4           0  0  0
    6.4173   -6.0957    1.2951 C   0  0  0  0  0  4           0  0  0
    6.2539   -8.1357    2.5941 C   0  0  0  0  0  4           0  0  0
   -2.8623   -0.1491   -2.3248 C   0  0  0  0  0  4           0  0  0
   -0.1013   -0.1072   -2.5086 C   0  0  0  0  0  4           0  0  0
    5.7229   -6.0047    3.6105 C   0  0  0  0  0  4           0  0  0
    5.8478   -7.3942    3.7012 C   0  0  0  0  0  4           0  0  0
    5.4955   -3.0728    3.2550 C   0  0  0  0  0  4           0  0  0
   -4.1948   -0.9842   -4.6951 C   0  0  0  0  0  4           0  0  0
   -4.4561   -1.6654   -6.0262 C   0  0  0  0  0  4           0  0  0
    0.0539    1.0384   -5.4872 C   0  0  0  0  0  4           0  0  0
   -6.0110   -3.0123   -7.1690 C   0  0  0  0  0  4           0  0  0
    5.4693   -1.6353    2.7879 C   0  0  0  0  0  4           0  0  0
  1 12  1  0     0  0
  1 13  1  0     0  0
  2 14  1  0     0  0
  3 15  1  0     0  0
  3 30  1  0     0  0
  4 16  1  0     0  0
  4 32  1  0     0  0
  5 29  2  0     0  0
  6 31  1  0     0  0
  6 33  1  0     0  0
  7 12  2  0     0  0
  7 20  1  0     0  0
  8 17  1  0     0  0
  8 18  2  0     0  0
  9 17  2  0     0  0
  9 19  1  0     0  0
 10 12  1  0     0  0
 10 18  1  0     0  0
 11 21  1  0     0  0
 11 29  1  0     0  0
 13 20  2  0     0  0
 13 34  1  0     0  0
 14 23  2  0     0  0
 14 24  1  0     0  0
 15 16  1  0     0  0
 15 25  2  0     0  0
 16 26  2  0     0  0
 18 22  1  0     0  0
 19 22  2  0     0  0
 19 25  1  0     0  0
 21 23  1  0     0  0
 21 27  2  0     0  0
 22 26  1  0     0  0
 24 28  2  0     0  0
 27 28  1  0     0  0
 29 34  1  0     0  0
 30 31  1  0     0  0
M  END
> <standard_type>
pIC50

> <# Confs.>
25

> <canonical_smiles>
FC1=CC(NC(CC2=CN=C(NC3=NC=NC4=C3C=C(OC)C(OCCOC)=C4)S2)=O)=CC=C1

> <standard_relation>
=

> <Publication_ID>
nan

> <predicted_activity_value>
8.045757490560675

> <actual_activity_value>
8.096910013008056

> <Compound>
4

> <standard_units>
nM

> hash
10565851915682723624

$$$$
4_
XXILIB    08252103493D 0   0.00000     0.00000

 34 37  0     1  0            999 V2000
    3.9192   -0.4544    0.7871 S   0  0  0  0  0  2           0  0  0
    5.3099    0.3546    9.6529 F   0  0  0  0  0  1           0  0  0
   -2.9470   -0.2996   -4.7704 O   0  0  0  0  0  2           0  0  0
   -0.2003   -0.2152   -4.8581 O   0  0  0  0  0  2           0  0  0
    6.5822    0.4407    3.2469 O   0  0  0  0  0  2           0  0  0
   -6.3815   -0.5046   -5.9297 O   0  0  0  0  0  2           0  0  0
    1.7953   -1.1817    2.0413 N   0  0  0  0  0  3           0  0  0
   -0.6605   -0.0000    1.1845 N   0  0  0  0  0  3           0  0  0
   -2.7579   -0.0594    0.0228 N   0  0  0  0  0  3           0  0  0
    1.4109   -0.0000   -0.0000 N   0  0  0  0  0  3           0  0  0
    5.5857   -0.7016    5.0122 N   0  0  0  0  0  3           0  0  0
    2.1978   -0.5509    0.9542 C   0  0  0  0  0  4           0  0  0
    4.1207   -1.3110    2.2561 C   0  0  0  0  0  4           0  0  0
    5.7305    0.6850    8.4237 C   0  0  0  0  0  4           0  0  0
   -2.2654   -0.1910   -3.5908 C   0  0  0  0  0  4           0  0  0
   -0.8735   -0.1473   -3.6711 C   0  0  0  0  0  4           0  0  0
   -1.9994   -0.0215    1.1280 C   0  0  0  0  0  4           0  0  0
    0.0000    0.0000    0.0000 C   0  0  0  0  0  4           0  0  0
   -2.1115   -0.0848   -1.1499 C   0  0  0  0  0  4           0  0  0
    2.8804   -1.6141    2.7759 C   0  0  0  0  0  4           0  0  0
    5.8888    0.1765    6.0701 C   0  0  0  0  0  4           0  0  0
   -0.7045   -0.0618   -1.2298 C   0  0  0  0  0  4           0  0  0
    5.4539   -0.1641    7.3549 C   0  0  0  0  0  4           0  0  0
    6.4346    1.8695    8.2371 C   0  0  0  0  0  4           0  0  0
   -2.8623   -0.1491   -2.3248 C   0  0  0  0  0  4           0  0  0
   -0.1013   -0.1072   -2.5086 C   0  0  0  0  0  4           0  0  0
    6.6024    1.3670    5.8757 C   0  0  0  0  0  4           0  0  0
    6.8725    2.2087    6.9589 C   0  0  0  0  0  4           0  0  0
    5.9414   -0.5138    3.6850 C   0  0  0  0  0  4           0  0  0
   -4.3670   -0.3417   -4.6548 C   0  0  0  0  0  4           0  0  0
   -4.9640   -0.4625   -6.0451 C   0  0  0  0  0  4           0  0  0
    0.0539    1.0384   -5.4872 C   0  0  0  0  0  4           0  0  0
   -7.0085   -0.6178   -7.1999 C   0  0  0  0  0  4           0  0  0
    5.4693   -1.6353    2.7879 C   0  0  0  0  0  4           0  0  0
  1 12  1  0     0  0
  1 13  1  0     0  0
  2 14  1  0     0  0
  3 15  1  0     0  0
  3 30  1  0     0  0
  4 16  1  0     0  0
  4 32  1  0     0  0
  5 29  2  0     0  0
  6 31  1  0     0  0
  6 33  1  0     0  0
  7 12  2  0     0  0
  7 20  1  0     0  0
  8 17  1  0     0  0
  8 18  2  0     0  0
  9 17  2  0     0  0
  9 19  1  0     0  0
 10 12  1  0     0  0
 10 18  1  0     0  0
 11 21  1  0     0  0
 11 29  1  0     0  0
 13 20  2  0     0  0
 13 34  1  0     0  0
 14 23  2  0     0  0
 14 24  1  0     0  0
 15 16  1  0     0  0
 15 25  2  0     0  0
 16 26  2  0     0  0
 18 22  1  0     0  0
 19 22  2  0     0  0
 19 25  1  0     0  0
 21 23  1  0     0  0
 21 27  2  0     0  0
 22 26  1  0     0  0
 24 28  2  0     0  0
 27 28  1  0     0  0
 29 34  1  0     0  0
 30 31  1  0     0  0
M  END
> <standard_type>
pIC50

> <# Confs.>
25

> <canonical_smiles>
FC1=CC(NC(CC2=CN=C(NC3=NC=NC4=C3C=C(OC)C(OCCOC)=C4)S2)=O)=CC=C1

> <standard_relation>
=

> <Publication_ID>
nan

> <predicted_activity_value>
8.045757490560675

> <actual_activity_value>
8.096910013008056

> <Compound>
4

> <standard_units>
nM

> hash
10565851915682723624

$$$$
4_
XXILIB    08252103493D 0   0.00000     0.00000

 34 37  0     1  0            999 V2000
    3.9192   -0.4544    0.7871 S   0  0  0  0  0  2           0  0  0
    9.0636    4.5356    2.4508 F   0  0  0  0  0  1           0  0  0
   -2.9470   -0.2996   -4.7704 O   0  0  0  0  0  2           0  0  0
   -0.2003   -0.2152   -4.8581 O   0  0  0  0  0  2           0  0  0
    5.7054   -0.5065    4.8925 O   0  0  0  0  0  2           0  0  0
   -5.8335    1.3612   -6.2167 O   0  0  0  0  0  2           0  0  0
    1.7953   -1.1817    2.0413 N   0  0  0  0  0  3           0  0  0
   -0.6605    0.0000    1.1845 N   0  0  0  0  0  3           0  0  0
   -2.7579   -0.0594    0.0228 N   0  0  0  0  0  3           0  0  0
    1.4109   -0.0000   -0.0000 N   0  0  0  0  0  3           0  0  0
    6.6325    0.4710    2.9954 N   0  0  0  0  0  3           0  0  0
    2.1978   -0.5509    0.9542 C   0  0  0  0  0  4           0  0  0
    4.1207   -1.3110    2.2561 C   0  0  0  0  0  4           0  0  0
    8.4227    3.6815    3.2610 C   0  0  0  0  0  4           0  0  0
   -2.2654   -0.1910   -3.5908 C   0  0  0  0  0  4           0  0  0
   -0.8735   -0.1473   -3.6711 C   0  0  0  0  0  4           0  0  0
   -1.9994   -0.0215    1.1280 C   0  0  0  0  0  4           0  0  0
    0.0000    0.0000    0.0000 C   0  0  0  0  0  4           0  0  0
   -2.1115   -0.0848   -1.1499 C   0  0  0  0  0  4           0  0  0
    2.8804   -1.6141    2.7759 C   0  0  0  0  0  4           0  0  0
    7.1874    1.6313    3.5680 C   0  0  0  0  0  4           0  0  0
   -0.7045   -0.0618   -1.2298 C   0  0  0  0  0  4           0  0  0
    7.8558    2.5268    2.7269 C   0  0  0  0  0  4           0  0  0
    8.3354    3.9627    4.6201 C   0  0  0  0  0  4           0  0  0
   -2.8623   -0.1491   -2.3248 C   0  0  0  0  0  4           0  0  0
   -0.1013   -0.1072   -2.5086 C   0  0  0  0  0  4           0  0  0
    7.0925    1.9107    4.9381 C   0  0  0  0  0  4           0  0  0
    7.6664    3.0743    5.4590 C   0  0  0  0  0  4           0  0  0
    5.9414   -0.5138    3.6850 C   0  0  0  0  0  4           0  0  0
   -4.2404    0.2990   -4.7869 C   0  0  0  0  0  4           0  0  0
   -4.5423    0.7636   -6.2001 C   0  0  0  0  0  4           0  0  0
    0.1459   -1.5294   -5.2881 C   0  0  0  0  0  4           0  0  0
   -6.1826    1.8211   -7.5151 C   0  0  0  0  0  4           0  0  0
    5.4693   -1.6353    2.7879 C   0  0  0  0  0  4           0  0  0
  1 12  1  0     0  0
  1 13  1  0     0  0
  2 14  1  0     0  0
  3 15  1  0     0  0
  3 30  1  0     0  0
  4 16  1  0     0  0
  4 32  1  0     0  0
  5 29  2  0     0  0
  6 31  1  0     0  0
  6 33  1  0     0  0
  7 12  2  0     0  0
  7 20  1  0     0  0
  8 17  1  0     0  0
  8 18  2  0     0  0
  9 17  2  0     0  0
  9 19  1  0     0  0
 10 12  1  0     0  0
 10 18  1  0     0  0
 11 21  1  0     0  0
 11 29  1  0     0  0
 13 20  2  0     0  0
 13 34  1  0     0  0
 14 23  2  0     0  0
 14 24  1  0     0  0
 15 16  1  0     0  0
 15 25  2  0     0  0
 16 26  2  0     0  0
 18 22  1  0     0  0
 19 22  2  0     0  0
 19 25  1  0     0  0
 21 23  1  0     0  0
 21 27  2  0     0  0
 22 26  1  0     0  0
 24 28  2  0     0  0
 27 28  1  0     0  0
 29 34  1  0     0  0
 30 31  1  0     0  0
M  END
> <standard_type>
pIC50

> <# Confs.>
25

> <canonical_smiles>
FC1=CC(NC(CC2=CN=C(NC3=NC=NC4=C3C=C(OC)C(OCCOC)=C4)S2)=O)=CC=C1

> <standard_relation>
=

> <Publication_ID>
nan

> <predicted_activity_value>
8.045757490560675

> <actual_activity_value>
8.096910013008056

> <Compound>
4

> <standard_units>
nM

> hash
10565851915682723624

$$$$
4_
XXILIB    08252103493D 0   0.00000     0.00000

 34 37  0     1  0            999 V2000
    3.9192   -0.4544    0.7871 S   0  0  0  0  0  2           0  0  0
    6.8261   -4.9025   -3.4247 F   0  0  0  0  0  1           0  0  0
   -2.9470   -0.2996   -4.7704 O   0  0  0  0  0  2           0  0  0
   -0.2003   -0.2152   -4.8581 O   0  0  0  0  0  2           0  0  0
    6.1740   -3.9196    2.9995 O   0  0  0  0  0  2           0  0  0
   -6.3815   -0.5046   -5.9297 O   0  0  0  0  0  2           0  0  0
    1.7953   -1.1817    2.0413 N   0  0  0  0  0  3           0  0  0
   -0.6605   -0.0000    1.1845 N   0  0  0  0  0  3           0  0  0
   -2.7579   -0.0594    0.0228 N   0  0  0  0  0  3           0  0  0
    1.4109    0.0000    0.0000 N   0  0  0  0  0  3           0  0  0
    6.0011   -3.0013    0.8686 N   0  0  0  0  0  3           0  0  0
    2.1978   -0.5509    0.9542 C   0  0  0  0  0  4           0  0  0
    4.1207   -1.3110    2.2561 C   0  0  0  0  0  4           0  0  0
    6.7954   -5.0467   -2.0924 C   0  0  0  0  0  4           0  0  0
   -2.2654   -0.1910   -3.5908 C   0  0  0  0  0  4           0  0  0
   -0.8735   -0.1473   -3.6711 C   0  0  0  0  0  4           0  0  0
   -1.9994   -0.0215    1.1280 C   0  0  0  0  0  4           0  0  0
    0.0000    0.0000    0.0000 C   0  0  0  0  0  4           0  0  0
   -2.1115   -0.0848   -1.1499 C   0  0  0  0  0  4           0  0  0
    2.8804   -1.6141    2.7759 C   0  0  0  0  0  4           0  0  0
    6.3882   -4.1118    0.0946 C   0  0  0  0  0  4           0  0  0
   -0.7045   -0.0618   -1.2298 C   0  0  0  0  0  4           0  0  0
    6.4235   -3.9664   -1.2959 C   0  0  0  0  0  4           0  0  0
    7.1346   -6.2720   -1.5291 C   0  0  0  0  0  4           0  0  0
   -2.8623   -0.1491   -2.3248 C   0  0  0  0  0  4           0  0  0
   -0.1013   -0.1072   -2.5086 C   0  0  0  0  0  4           0  0  0
    6.7326   -5.3429    0.6691 C   0  0  0  0  0  4           0  0  0
    7.1042   -6.4178   -0.1440 C   0  0  0  0  0  4           0  0  0
    5.9139   -2.9772    2.2524 C   0  0  0  0  0  4           0  0  0
   -4.3670   -0.3417   -4.6548 C   0  0  0  0  0  4           0  0  0
   -4.9640   -0.4625   -6.0451 C   0  0  0  0  0  4           0  0  0
    0.1459   -1.5294   -5.2881 C   0  0  0  0  0  4           0  0  0
   -7.0085   -0.6178   -7.1999 C   0  0  0  0  0  4           0  0  0
    5.4693   -1.6353    2.7879 C   0  0  0  0  0  4           0  0  0
  1 12  1  0     0  0
  1 13  1  0     0  0
  2 14  1  0     0  0
  3 15  1  0     0  0
  3 30  1  0     0  0
  4 16  1  0     0  0
  4 32  1  0     0  0
  5 29  2  0     0  0
  6 31  1  0     0  0
  6 33  1  0     0  0
  7 12  2  0     0  0
  7 20  1  0     0  0
  8 17  1  0     0  0
  8 18  2  0     0  0
  9 17  2  0     0  0
  9 19  1  0     0  0
 10 12  1  0     0  0
 10 18  1  0     0  0
 11 21  1  0     0  0
 11 29  1  0     0  0
 13 20  2  0     0  0
 13 34  1  0     0  0
 14 23  2  0     0  0
 14 24  1  0     0  0
 15 16  1  0     0  0
 15 25  2  0     0  0
 16 26  2  0     0  0
 18 22  1  0     0  0
 19 22  2  0     0  0
 19 25  1  0     0  0
 21 23  1  0     0  0
 21 27  2  0     0  0
 22 26  1  0     0  0
 24 28  2  0     0  0
 27 28  1  0     0  0
 29 34  1  0     0  0
 30 31  1  0     0  0
M  END
> <standard_type>
pIC50

> <# Confs.>
25

> <canonical_smiles>
FC1=CC(NC(CC2=CN=C(NC3=NC=NC4=C3C=C(OC)C(OCCOC)=C4)S2)=O)=CC=C1

> <standard_relation>
=

> <Publication_ID>
nan

> <predicted_activity_value>
8.045757490560675

> <actual_activity_value>
8.096910013008056

> <Compound>
4

> <standard_units>
nM

> hash
10565851915682723624

$$$$
4_
XXILIB    08252103493D 0   0.00000     0.00000

 34 37  0     1  0            999 V2000
    3.9192   -0.4544    0.7871 S   0  0  0  0  0  2           0  0  0
    5.1340   -8.5900    4.4104 F   0  0  0  0  0  1           0  0  0
   -2.9470   -0.2996   -4.7704 O   0  0  0  0  0  2           0  0  0
   -0.2003   -0.2152   -4.8581 O   0  0  0  0  0  2           0  0  0
    6.5430   -3.0791    1.1999 O   0  0  0  0  0  2           0  0  0
   -6.3815   -0.5046   -5.9297 O   0  0  0  0  0  2           0  0  0
    1.7953   -1.1817    2.0413 N   0  0  0  0  0  3           0  0  0
   -0.6605   -0.0000    1.1845 N   0  0  0  0  0  3           0  0  0
   -2.7579   -0.0594    0.0228 N   0  0  0  0  0  3           0  0  0
    1.4109   -0.0000    0.0000 N   0  0  0  0  0  3           0  0  0
    5.5233   -4.0344    3.0605 N   0  0  0  0  0  3           0  0  0
    2.1978   -0.5509    0.9542 C   0  0  0  0  0  4           0  0  0
    4.1207   -1.3110    2.2561 C   0  0  0  0  0  4           0  0  0
    5.5838   -7.6899    3.5248 C   0  0  0  0  0  4           0  0  0
   -2.2654   -0.1910   -3.5908 C   0  0  0  0  0  4           0  0  0
   -0.8735   -0.1473   -3.6711 C   0  0  0  0  0  4           0  0  0
   -1.9994   -0.0215    1.1280 C   0  0  0  0  0  4           0  0  0
    0.0000    0.0000    0.0000 C   0  0  0  0  0  4           0  0  0
   -2.1115   -0.0848   -1.1499 C   0  0  0  0  0  4           0  0  0
    2.8804   -1.6141    2.7759 C   0  0  0  0  0  4           0  0  0
    5.7952   -5.3935    2.8141 C   0  0  0  0  0  4           0  0  0
   -0.7045   -0.0618   -1.2298 C   0  0  0  0  0  4           0  0  0
    5.3269   -6.3371    3.7340 C   0  0  0  0  0  4           0  0  0
    6.2993   -8.1222    2.4135 C   0  0  0  0  0  4           0  0  0
   -2.8623   -0.1491   -2.3248 C   0  0  0  0  0  4           0  0  0
   -0.1013   -0.1072   -2.5086 C   0  0  0  0  0  4           0  0  0
    6.5136   -5.8229    1.6899 C   0  0  0  0  0  4           0  0  0
    6.7630   -7.1845    1.4937 C   0  0  0  0  0  4           0  0  0
    5.9139   -2.9772    2.2524 C   0  0  0  0  0  4           0  0  0
   -4.3670   -0.3417   -4.6548 C   0  0  0  0  0  4           0  0  0
   -4.9640   -0.4625   -6.0451 C   0  0  0  0  0  4           0  0  0
    0.1459   -1.5294   -5.2881 C   0  0  0  0  0  4           0  0  0
   -7.0085   -0.6178   -7.1999 C   0  0  0  0  0  4           0  0  0
    5.4693   -1.6353    2.7879 C   0  0  0  0  0  4           0  0  0
  1 12  1  0     0  0
  1 13  1  0     0  0
  2 14  1  0     0  0
  3 15  1  0     0  0
  3 30  1  0     0  0
  4 16  1  0     0  0
  4 32  1  0     0  0
  5 29  2  0     0  0
  6 31  1  0     0  0
  6 33  1  0     0  0
  7 12  2  0     0  0
  7 20  1  0     0  0
  8 17  1  0     0  0
  8 18  2  0     0  0
  9 17  2  0     0  0
  9 19  1  0     0  0
 10 12  1  0     0  0
 10 18  1  0     0  0
 11 21  1  0     0  0
 11 29  1  0     0  0
 13 20  2  0     0  0
 13 34  1  0     0  0
 14 23  2  0     0  0
 14 24  1  0     0  0
 15 16  1  0     0  0
 15 25  2  0     0  0
 16 26  2  0     0  0
 18 22  1  0     0  0
 19 22  2  0     0  0
 19 25  1  0     0  0
 21 23  1  0     0  0
 21 27  2  0     0  0
 22 26  1  0     0  0
 24 28  2  0     0  0
 27 28  1  0     0  0
 29 34  1  0     0  0
 30 31  1  0     0  0
M  END
> <standard_type>
pIC50

> <# Confs.>
25

> <canonical_smiles>
FC1=CC(NC(CC2=CN=C(NC3=NC=NC4=C3C=C(OC)C(OCCOC)=C4)S2)=O)=CC=C1

> <standard_relation>
=

> <Publication_ID>
nan

> <predicted_activity_value>
8.045757490560675

> <actual_activity_value>
8.096910013008056

> <Compound>
4

> <standard_units>
nM

> hash
10565851915682723624

$$$$
4_
XXILIB    08252103493D 0   0.00000     0.00000

 34 37  0     1  0            999 V2000
    3.9192   -0.4544    0.7871 S   0  0  0  0  0  2           0  0  0
    6.9779    3.7398    7.2539 F   0  0  0  0  0  1           0  0  0
   -2.9470   -0.2996   -4.7704 O   0  0  0  0  0  2           0  0  0
   -0.2003   -0.2152   -4.8581 O   0  0  0  0  0  2           0  0  0
    5.2173   -2.1745    5.1128 O   0  0  0  0  0  2           0  0  0
   -5.7018   -2.3488   -5.9510 O   0  0  0  0  0  2           0  0  0
    1.7953   -1.1817    2.0413 N   0  0  0  0  0  3           0  0  0
   -0.6605    0.0000    1.1845 N   0  0  0  0  0  3           0  0  0
   -2.7579   -0.0594    0.0228 N   0  0  0  0  0  3           0  0  0
    1.4109    0.0000    0.0000 N   0  0  0  0  0  3           0  0  0
    5.9047   -0.0275    4.5366 N   0  0  0  0  0  3           0  0  0
    2.1978   -0.5509    0.9542 C   0  0  0  0  0  4           0  0  0
    4.1207   -1.3110    2.2561 C   0  0  0  0  0  4           0  0  0
    6.5879    2.4602    7.1686 C   0  0  0  0  0  4           0  0  0
   -2.2654   -0.1910   -3.5908 C   0  0  0  0  0  4           0  0  0
   -0.8735   -0.1473   -3.6711 C   0  0  0  0  0  4           0  0  0
   -1.9994   -0.0215    1.1280 C   0  0  0  0  0  4           0  0  0
    0.0000   -0.0000    0.0000 C   0  0  0  0  0  4           0  0  0
   -2.1115   -0.0848   -1.1499 C   0  0  0  0  0  4           0  0  0
    2.8804   -1.6141    2.7759 C   0  0  0  0  0  4           0  0  0
    6.0361    0.5368    5.8197 C   0  0  0  0  0  4           0  0  0
   -0.7045   -0.0618   -1.2298 C   0  0  0  0  0  4           0  0  0
    6.4412    1.8720    5.9146 C   0  0  0  0  0  4           0  0  0
    6.3372    1.7424    8.3329 C   0  0  0  0  0  4           0  0  0
   -2.8623   -0.1491   -2.3248 C   0  0  0  0  0  4           0  0  0
   -0.1013   -0.1072   -2.5086 C   0  0  0  0  0  4           0  0  0
    5.7780   -0.1911    6.9893 C   0  0  0  0  0  4           0  0  0
    5.9294    0.4136    8.2407 C   0  0  0  0  0  4           0  0  0
    5.5149   -1.3309    4.2680 C   0  0  0  0  0  4           0  0  0
   -4.1948   -0.9842   -4.6951 C   0  0  0  0  0  4           0  0  0
   -4.4561   -1.6654   -6.0262 C   0  0  0  0  0  4           0  0  0
    0.0539    1.0384   -5.4872 C   0  0  0  0  0  4           0  0  0
   -6.0110   -3.0123   -7.1690 C   0  0  0  0  0  4           0  0  0
    5.4693   -1.6353    2.7879 C   0  0  0  0  0  4           0  0  0
  1 12  1  0     0  0
  1 13  1  0     0  0
  2 14  1  0     0  0
  3 15  1  0     0  0
  3 30  1  0     0  0
  4 16  1  0     0  0
  4 32  1  0     0  0
  5 29  2  0     0  0
  6 31  1  0     0  0
  6 33  1  0     0  0
  7 12  2  0     0  0
  7 20  1  0     0  0
  8 17  1  0     0  0
  8 18  2  0     0  0
  9 17  2  0     0  0
  9 19  1  0     0  0
 10 12  1  0     0  0
 10 18  1  0     0  0
 11 21  1  0     0  0
 11 29  1  0     0  0
 13 20  2  0     0  0
 13 34  1  0     0  0
 14 23  2  0     0  0
 14 24  1  0     0  0
 15 16  1  0     0  0
 15 25  2  0     0  0
 16 26  2  0     0  0
 18 22  1  0     0  0
 19 22  2  0     0  0
 19 25  1  0     0  0
 21 23  1  0     0  0
 21 27  2  0     0  0
 22 26  1  0     0  0
 24 28  2  0     0  0
 27 28  1  0     0  0
 29 34  1  0     0  0
 30 31  1  0     0  0
M  END
> <standard_type>
pIC50

> <# Confs.>
25

> <canonical_smiles>
FC1=CC(NC(CC2=CN=C(NC3=NC=NC4=C3C=C(OC)C(OCCOC)=C4)S2)=O)=CC=C1

> <standard_relation>
=

> <Publication_ID>
nan

> <predicted_activity_value>
8.045757490560675

> <actual_activity_value>
8.096910013008056

> <Compound>
4

> <standard_units>
nM

> hash
10565851915682723624

$$$$
4_
XXILIB    08252103493D 0   0.00000     0.00000

 34 37  0     1  0            999 V2000
    3.9192   -0.4544    0.7871 S   0  0  0  0  0  2           0  0  0
    9.0398   -4.4456   -2.7316 F   0  0  0  0  0  1           0  0  0
   -2.9470   -0.2996   -4.7704 O   0  0  0  0  0  2           0  0  0
   -0.2003   -0.2152   -4.8581 O   0  0  0  0  0  2           0  0  0
    5.6662   -4.0264    2.8455 O   0  0  0  0  0  2           0  0  0
   -5.8335    1.3612   -6.2167 O   0  0  0  0  0  2           0  0  0
    1.7953   -1.1817    2.0413 N   0  0  0  0  0  3           0  0  0
   -0.6605    0.0000    1.1845 N   0  0  0  0  0  3           0  0  0
   -2.7579   -0.0594    0.0228 N   0  0  0  0  0  3           0  0  0
    1.4109   -0.0000    0.0000 N   0  0  0  0  0  3           0  0  0
    6.6206   -2.8739    1.0637 N   0  0  0  0  0  3           0  0  0
    2.1978   -0.5509    0.9542 C   0  0  0  0  0  4           0  0  0
    4.1207   -1.3110    2.2561 C   0  0  0  0  0  4           0  0  0
    8.3824   -4.7190   -1.5959 C   0  0  0  0  0  4           0  0  0
   -2.2654   -0.1910   -3.5908 C   0  0  0  0  0  4           0  0  0
   -0.8735   -0.1473   -3.6711 C   0  0  0  0  0  4           0  0  0
   -1.9994   -0.0215    1.1280 C   0  0  0  0  0  4           0  0  0
    0.0000    0.0000    0.0000 C   0  0  0  0  0  4           0  0  0
   -2.1115   -0.0848   -1.1499 C   0  0  0  0  0  4           0  0  0
    2.8804   -1.6141    2.7759 C   0  0  0  0  0  4           0  0  0
    7.1567   -3.9538    0.3367 C   0  0  0  0  0  4           0  0  0
   -0.7045   -0.0618   -1.2298 C   0  0  0  0  0  4           0  0  0
    7.8450   -3.6741   -0.8482 C   0  0  0  0  0  4           0  0  0
    8.2480   -6.0406   -1.1846 C   0  0  0  0  0  4           0  0  0
   -2.8623   -0.1491   -2.3248 C   0  0  0  0  0  4           0  0  0
   -0.1013   -0.1072   -2.5086 C   0  0  0  0  0  4           0  0  0
    7.0210   -5.2833    0.7590 C   0  0  0  0  0  4           0  0  0
    7.5666   -6.3212   -0.0025 C   0  0  0  0  0  4           0  0  0
    5.9139   -2.9772    2.2524 C   0  0  0  0  0  4           0  0  0
   -4.2404    0.2990   -4.7869 C   0  0  0  0  0  4           0  0  0
   -4.5423    0.7636   -6.2001 C   0  0  0  0  0  4           0  0  0
    0.0539    1.0384   -5.4872 C   0  0  0  0  0  4           0  0  0
   -6.1826    1.8211   -7.5151 C   0  0  0  0  0  4           0  0  0
    5.4693   -1.6353    2.7879 C   0  0  0  0  0  4           0  0  0
  1 12  1  0     0  0
  1 13  1  0     0  0
  2 14  1  0     0  0
  3 15  1  0     0  0
  3 30  1  0     0  0
  4 16  1  0     0  0
  4 32  1  0     0  0
  5 29  2  0     0  0
  6 31  1  0     0  0
  6 33  1  0     0  0
  7 12  2  0     0  0
  7 20  1  0     0  0
  8 17  1  0     0  0
  8 18  2  0     0  0
  9 17  2  0     0  0
  9 19  1  0     0  0
 10 12  1  0     0  0
 10 18  1  0     0  0
 11 21  1  0     0  0
 11 29  1  0     0  0
 13 20  2  0     0  0
 13 34  1  0     0  0
 14 23  2  0     0  0
 14 24  1  0     0  0
 15 16  1  0     0  0
 15 25  2  0     0  0
 16 26  2  0     0  0
 18 22  1  0     0  0
 19 22  2  0     0  0
 19 25  1  0     0  0
 21 23  1  0     0  0
 21 27  2  0     0  0
 22 26  1  0     0  0
 24 28  2  0     0  0
 27 28  1  0     0  0
 29 34  1  0     0  0
 30 31  1  0     0  0
M  END
> <standard_type>
pIC50

> <# Confs.>
25

> <canonical_smiles>
FC1=CC(NC(CC2=CN=C(NC3=NC=NC4=C3C=C(OC)C(OCCOC)=C4)S2)=O)=CC=C1

> <standard_relation>
=

> <Publication_ID>
nan

> <predicted_activity_value>
8.045757490560675

> <actual_activity_value>
8.096910013008056

> <Compound>
4

> <standard_units>
nM

> hash
10565851915682723624

$$$$
4_
XXILIB    08252103493D 0   0.00000     0.00000

 34 37  0     1  0            999 V2000
    3.9192    0.4544    0.7871 S   0  0  0  0  0  2           0  0  0
   10.7682    4.4287   -1.0647 F   0  0  0  0  0  1           0  0  0
   -2.9470   -0.2996   -4.7704 O   0  0  0  0  0  2           0  0  0
   -0.2003   -0.2152   -4.8581 O   0  0  0  0  0  2           0  0  0
    5.3184    3.9725    2.5066 O   0  0  0  0  0  2           0  0  0
   -6.3815   -0.5046   -5.9297 O   0  0  0  0  0  2           0  0  0
    1.7953    1.1769    2.0440 N   0  0  0  0  0  3           0  0  0
   -0.6605   -0.0000    1.1845 N   0  0  0  0  0  3           0  0  0
   -2.7579   -0.0594    0.0228 N   0  0  0  0  0  3           0  0  0
    1.4109    0.0000    0.0000 N   0  0  0  0  0  3           0  0  0
    7.1104    2.8398    1.5475 N   0  0  0  0  0  3           0  0  0
    2.1978    0.5509    0.9542 C   0  0  0  0  0  4           0  0  0
    4.1207    1.2983    2.2634 C   0  0  0  0  0  4           0  0  0
    9.6444    4.6926   -0.3834 C   0  0  0  0  0  4           0  0  0
   -2.2654   -0.1910   -3.5908 C   0  0  0  0  0  4           0  0  0
   -0.8735   -0.1473   -3.6711 C   0  0  0  0  0  4           0  0  0
   -1.9994   -0.0215    1.1280 C   0  0  0  0  0  4           0  0  0
    0.0000    0.0000    0.0000 C   0  0  0  0  0  4           0  0  0
   -2.1115   -0.0848   -1.1499 C   0  0  0  0  0  4           0  0  0
    2.8804    1.5970    2.7858 C   0  0  0  0  0  4           0  0  0
    7.7803    3.9183    0.9391 C   0  0  0  0  0  4           0  0  0
   -0.7045   -0.0618   -1.2298 C   0  0  0  0  0  4           0  0  0
    8.9525    3.6484    0.2255 C   0  0  0  0  0  4           0  0  0
    9.1895    6.0038   -0.2958 C   0  0  0  0  0  4           0  0  0
   -2.8623   -0.1491   -2.3248 C   0  0  0  0  0  4           0  0  0
   -0.1013   -0.1072   -2.5086 C   0  0  0  0  0  4           0  0  0
    7.3142    5.2371    1.0279 C   0  0  0  0  0  4           0  0  0
    8.0198    6.2743    0.4107 C   0  0  0  0  0  4           0  0  0
    5.9414    2.9344    2.2875 C   0  0  0  0  0  4           0  0  0
   -4.3670   -0.3417   -4.6548 C   0  0  0  0  0  4           0  0  0
   -4.9640   -0.4625   -6.0451 C   0  0  0  0  0  4           0  0  0
    0.0539    1.0384   -5.4872 C   0  0  0  0  0  4           0  0  0
   -7.0085   -0.6178   -7.1999 C   0  0  0  0  0  4           0  0  0
    5.4693    1.5968    2.8102 C   0  0  0  0  0  4           0  0  0
  1 12  1  0     0  0
  1 13  1  0     0  0
  2 14  1  0     0  0
  3 15  1  0     0  0
  3 30  1  0     0  0
  4 16  1  0     0  0
  4 32  1  0     0  0
  5 29  2  0     0  0
  6 31  1  0     0  0
  6 33  1  0     0  0
  7 12  2  0     0  0
  7 20  1  0     0  0
  8 17  1  0     0  0
  8 18  2  0     0  0
  9 17  2  0     0  0
  9 19  1  0     0  0
 10 12  1  0     0  0
 10 18  1  0     0  0
 11 21  1  0     0  0
 11 29  1  0     0  0
 13 20  2  0     0  0
 13 34  1  0     0  0
 14 23  2  0     0  0
 14 24  1  0     0  0
 15 16  1  0     0  0
 15 25  2  0     0  0
 16 26  2  0     0  0
 18 22  1  0     0  0
 19 22  2  0     0  0
 19 25  1  0     0  0
 21 23  1  0     0  0
 21 27  2  0     0  0
 22 26  1  0     0  0
 24 28  2  0     0  0
 27 28  1  0     0  0
 29 34  1  0     0  0
 30 31  1  0     0  0
M  END
> <standard_type>
pIC50

> <# Confs.>
25

> <canonical_smiles>
FC1=CC(NC(CC2=CN=C(NC3=NC=NC4=C3C=C(OC)C(OCCOC)=C4)S2)=O)=CC=C1

> <standard_relation>
=

> <Publication_ID>
nan

> <predicted_activity_value>
8.045757490560675

> <actual_activity_value>
8.096910013008056

> <Compound>
4

> <standard_units>
nM

> hash
10565851915682723624

$$$$
4_
XXILIB    08252103493D 0   0.00000     0.00000

 34 37  0     1  0            999 V2000
    3.9192    0.4544    0.7871 S   0  0  0  0  0  2           0  0  0
    6.8562    4.9073   -3.3728 F   0  0  0  0  0  1           0  0  0
   -2.9470   -0.2996   -4.7704 O   0  0  0  0  0  2           0  0  0
   -0.2003   -0.2152   -4.8581 O   0  0  0  0  0  2           0  0  0
    6.2098    3.8676    3.0431 O   0  0  0  0  0  2           0  0  0
   -6.3815   -0.5046   -5.9297 O   0  0  0  0  0  2           0  0  0
    1.7953    1.1769    2.0440 N   0  0  0  0  0  3           0  0  0
   -0.6605   -0.0000    1.1845 N   0  0  0  0  0  3           0  0  0
   -2.7579   -0.0594    0.0228 N   0  0  0  0  0  3           0  0  0
    1.4109    0.0000    0.0000 N   0  0  0  0  0  3           0  0  0
    6.0143    2.9749    0.9032 N   0  0  0  0  0  3           0  0  0
    2.1978    0.5509    0.9542 C   0  0  0  0  0  4           0  0  0
    4.1207    1.2983    2.2634 C   0  0  0  0  0  4           0  0  0
    6.8403    5.0353   -2.0386 C   0  0  0  0  0  4           0  0  0
   -2.2654   -0.1910   -3.5908 C   0  0  0  0  0  4           0  0  0
   -0.8735   -0.1473   -3.6711 C   0  0  0  0  0  4           0  0  0
   -1.9994   -0.0215    1.1280 C   0  0  0  0  0  4           0  0  0
    0.0000    0.0000    0.0000 C   0  0  0  0  0  4           0  0  0
   -2.1115   -0.0848   -1.1499 C   0  0  0  0  0  4           0  0  0
    2.8804    1.5970    2.7858 C   0  0  0  0  0  4           0  0  0
    6.4205    4.0858    0.1398 C   0  0  0  0  0  4           0  0  0
   -0.7045   -0.0618   -1.2298 C   0  0  0  0  0  4           0  0  0
    6.4374    3.9583   -1.2528 C   0  0  0  0  0  4           0  0  0
    7.2268    6.2405   -1.4625 C   0  0  0  0  0  4           0  0  0
   -2.8623   -0.1491   -2.3248 C   0  0  0  0  0  4           0  0  0
   -0.1013   -0.1072   -2.5086 C   0  0  0  0  0  4           0  0  0
    6.8051    5.2990    0.7267 C   0  0  0  0  0  4           0  0  0
    7.2066    6.3712   -0.0757 C   0  0  0  0  0  4           0  0  0
    5.9414    2.9344    2.2875 C   0  0  0  0  0  4           0  0  0
   -4.3670   -0.3417   -4.6548 C   0  0  0  0  0  4           0  0  0
   -4.9640   -0.4625   -6.0451 C   0  0  0  0  0  4           0  0  0
    0.0539    1.0384   -5.4872 C   0  0  0  0  0  4           0  0  0
   -7.0085   -0.6178   -7.1999 C   0  0  0  0  0  4           0  0  0
    5.4693    1.5968    2.8102 C   0  0  0  0  0  4           0  0  0
  1 12  1  0     0  0
  1 13  1  0     0  0
  2 14  1  0     0  0
  3 15  1  0     0  0
  3 30  1  0     0  0
  4 16  1  0     0  0
  4 32  1  0     0  0
  5 29  2  0     0  0
  6 31  1  0     0  0
  6 33  1  0     0  0
  7 12  2  0     0  0
  7 20  1  0     0  0
  8 17  1  0     0  0
  8 18  2  0     0  0
  9 17  2  0     0  0
  9 19  1  0     0  0
 10 12  1  0     0  0
 10 18  1  0     0  0
 11 21  1  0     0  0
 11 29  1  0     0  0
 13 20  2  0     0  0
 13 34  1  0     0  0
 14 23  2  0     0  0
 14 24  1  0     0  0
 15 16  1  0     0  0
 15 25  2  0     0  0
 16 26  2  0     0  0
 18 22  1  0     0  0
 19 22  2  0     0  0
 19 25  1  0     0  0
 21 23  1  0     0  0
 21 27  2  0     0  0
 22 26  1  0     0  0
 24 28  2  0     0  0
 27 28  1  0     0  0
 29 34  1  0     0  0
 30 31  1  0     0  0
M  END
> <standard_type>
pIC50

> <# Confs.>
25

> <canonical_smiles>
FC1=CC(NC(CC2=CN=C(NC3=NC=NC4=C3C=C(OC)C(OCCOC)=C4)S2)=O)=CC=C1

> <standard_relation>
=

> <Publication_ID>
nan

> <predicted_activity_value>
8.045757490560675

> <actual_activity_value>
8.096910013008056

> <Compound>
4

> <standard_units>
nM

> hash
10565851915682723624

$$$$
4_
XXILIB    08252103493D 0   0.00000     0.00000

 34 37  0     1  0            999 V2000
    3.9192    0.4544    0.7871 S   0  0  0  0  0  2           0  0  0
    5.1340   -0.4754    9.6444 F   0  0  0  0  0  1           0  0  0
   -2.9470   -0.2996   -4.7704 O   0  0  0  0  0  2           0  0  0
   -0.2003   -0.2152   -4.8581 O   0  0  0  0  0  2           0  0  0
    6.5430   -0.5004    3.2665 O   0  0  0  0  0  2           0  0  0
   -6.3815   -0.5046   -5.9297 O   0  0  0  0  0  2           0  0  0
    1.7953    1.1769    2.0440 N   0  0  0  0  0  3           0  0  0
   -0.6605   -0.0000    1.1845 N   0  0  0  0  0  3           0  0  0
   -2.7579   -0.0594    0.0228 N   0  0  0  0  0  3           0  0  0
    1.4109    0.0000    0.0000 N   0  0  0  0  0  3           0  0  0
    5.5233    0.6333    5.0241 N   0  0  0  0  0  3           0  0  0
    2.1978    0.5509    0.9542 C   0  0  0  0  0  4           0  0  0
    4.1207    1.2983    2.2634 C   0  0  0  0  0  4           0  0  0
    5.5838   -0.7924    8.4221 C   0  0  0  0  0  4           0  0  0
   -2.2654   -0.1910   -3.5908 C   0  0  0  0  0  4           0  0  0
   -0.8735   -0.1473   -3.6711 C   0  0  0  0  0  4           0  0  0
   -1.9994   -0.0215    1.1280 C   0  0  0  0  0  4           0  0  0
    0.0000    0.0000    0.0000 C   0  0  0  0  0  4           0  0  0
   -2.1115   -0.0848   -1.1499 C   0  0  0  0  0  4           0  0  0
    2.8804    1.5970    2.7858 C   0  0  0  0  0  4           0  0  0
    5.7952   -0.2597    6.0780 C   0  0  0  0  0  4           0  0  0
   -0.7045   -0.0618   -1.2298 C   0  0  0  0  0  4           0  0  0
    5.3269    0.0652    7.3551 C   0  0  0  0  0  4           0  0  0
    6.2993   -1.9709    8.2408 C   0  0  0  0  0  4           0  0  0
   -2.8623   -0.1491   -2.3248 C   0  0  0  0  0  4           0  0  0
   -0.1013   -0.1072   -2.5086 C   0  0  0  0  0  4           0  0  0
    6.5136   -1.4480    5.8877 C   0  0  0  0  0  4           0  0  0
    6.7630   -2.2987    6.9688 C   0  0  0  0  0  4           0  0  0
    5.9139    0.4620    3.7046 C   0  0  0  0  0  4           0  0  0
   -4.3670   -0.3417   -4.6548 C   0  0  0  0  0  4           0  0  0
   -4.9640   -0.4625   -6.0451 C   0  0  0  0  0  4           0  0  0
    0.0539    1.0384   -5.4872 C   0  0  0  0  0  4           0  0  0
   -7.0085   -0.6178   -7.1999 C   0  0  0  0  0  4           0  0  0
    5.4693    1.5968    2.8102 C   0  0  0  0  0  4           0  0  0
  1 12  1  0     0  0
  1 13  1  0     0  0
  2 14  1  0     0  0
  3 15  1  0     0  0
  3 30  1  0     0  0
  4 16  1  0     0  0
  4 32  1  0     0  0
  5 29  2  0     0  0
  6 31  1  0     0  0
  6 33  1  0     0  0
  7 12  2  0     0  0
  7 20  1  0     0  0
  8 17  1  0     0  0
  8 18  2  0     0  0
  9 17  2  0     0  0
  9 19  1  0     0  0
 10 12  1  0     0  0
 10 18  1  0     0  0
 11 21  1  0     0  0
 11 29  1  0     0  0
 13 20  2  0     0  0
 13 34  1  0     0  0
 14 23  2  0     0  0
 14 24  1  0     0  0
 15 16  1  0     0  0
 15 25  2  0     0  0
 16 26  2  0     0  0
 18 22  1  0     0  0
 19 22  2  0     0  0
 19 25  1  0     0  0
 21 23  1  0     0  0
 21 27  2  0     0  0
 22 26  1  0     0  0
 24 28  2  0     0  0
 27 28  1  0     0  0
 29 34  1  0     0  0
 30 31  1  0     0  0
M  END
> <standard_type>
pIC50

> <# Confs.>
25

> <canonical_smiles>
FC1=CC(NC(CC2=CN=C(NC3=NC=NC4=C3C=C(OC)C(OCCOC)=C4)S2)=O)=CC=C1

> <standard_relation>
=

> <Publication_ID>
nan

> <predicted_activity_value>
8.045757490560675

> <actual_activity_value>
8.096910013008056

> <Compound>
4

> <standard_units>
nM

> hash
10565851915682723624

$$$$
4_
XXILIB    08252103493D 0   0.00000     0.00000

 34 37  0     1  0            999 V2000
    3.9192   -0.4544    0.7871 S   0  0  0  0  0  2           0  0  0
    6.8562    5.3746    2.5634 F   0  0  0  0  0  1           0  0  0
   -2.9470   -0.2996   -4.7704 O   0  0  0  0  0  2           0  0  0
   -0.2003   -0.2152   -4.8581 O   0  0  0  0  0  2           0  0  0
    6.2098   -0.7016    4.8710 O   0  0  0  0  0  2           0  0  0
   -6.3815   -0.5046   -5.9297 O   0  0  0  0  0  2           0  0  0
    1.7953   -1.1817    2.0413 N   0  0  0  0  0  3           0  0  0
   -0.6605   -0.0000    1.1845 N   0  0  0  0  0  3           0  0  0
   -2.7579   -0.0594    0.0228 N   0  0  0  0  0  3           0  0  0
    1.4109    0.0000    0.0000 N   0  0  0  0  0  3           0  0  0
    6.0143    0.7052    3.0279 N   0  0  0  0  0  3           0  0  0
    2.1978   -0.5509    0.9542 C   0  0  0  0  0  4           0  0  0
    4.1207   -1.3110    2.2561 C   0  0  0  0  0  4           0  0  0
    6.8403    4.2832    3.3414 C   0  0  0  0  0  4           0  0  0
   -2.2654   -0.1910   -3.5908 C   0  0  0  0  0  4           0  0  0
   -0.8735   -0.1473   -3.6711 C   0  0  0  0  0  4           0  0  0
   -1.9994   -0.0215    1.1280 C   0  0  0  0  0  4           0  0  0
    0.0000    0.0000    0.0000 C   0  0  0  0  0  4           0  0  0
   -2.1115   -0.0848   -1.1499 C   0  0  0  0  0  4           0  0  0
    2.8804   -1.6141    2.7759 C   0  0  0  0  0  4           0  0  0
    6.4205    1.9219    3.6083 C   0  0  0  0  0  4           0  0  0
   -0.7045   -0.0618   -1.2298 C   0  0  0  0  0  4           0  0  0
    6.4374    3.0641    2.8015 C   0  0  0  0  0  4           0  0  0
    7.2268    4.3868    4.6732 C   0  0  0  0  0  4           0  0  0
   -2.8623   -0.1491   -2.3248 C   0  0  0  0  0  4           0  0  0
   -0.1013   -0.1072   -2.5086 C   0  0  0  0  0  4           0  0  0
    6.8051    2.0202    4.9524 C   0  0  0  0  0  4           0  0  0
    7.2066    3.2512    5.4798 C   0  0  0  0  0  4           0  0  0
    5.9414   -0.5138    3.6850 C   0  0  0  0  0  4           0  0  0
   -4.3670   -0.3417   -4.6548 C   0  0  0  0  0  4           0  0  0
   -4.9640   -0.4625   -6.0451 C   0  0  0  0  0  4           0  0  0
    0.1459   -1.5294   -5.2881 C   0  0  0  0  0  4           0  0  0
   -7.0085   -0.6178   -7.1999 C   0  0  0  0  0  4           0  0  0
    5.4693   -1.6353    2.7879 C   0  0  0  0  0  4           0  0  0
  1 12  1  0     0  0
  1 13  1  0     0  0
  2 14  1  0     0  0
  3 15  1  0     0  0
  3 30  1  0     0  0
  4 16  1  0     0  0
  4 32  1  0     0  0
  5 29  2  0     0  0
  6 31  1  0     0  0
  6 33  1  0     0  0
  7 12  2  0     0  0
  7 20  1  0     0  0
  8 17  1  0     0  0
  8 18  2  0     0  0
  9 17  2  0     0  0
  9 19  1  0     0  0
 10 12  1  0     0  0
 10 18  1  0     0  0
 11 21  1  0     0  0
 11 29  1  0     0  0
 13 20  2  0     0  0
 13 34  1  0     0  0
 14 23  2  0     0  0
 14 24  1  0     0  0
 15 16  1  0     0  0
 15 25  2  0     0  0
 16 26  2  0     0  0
 18 22  1  0     0  0
 19 22  2  0     0  0
 19 25  1  0     0  0
 21 23  1  0     0  0
 21 27  2  0     0  0
 22 26  1  0     0  0
 24 28  2  0     0  0
 27 28  1  0     0  0
 29 34  1  0     0  0
 30 31  1  0     0  0
M  END
> <standard_type>
pIC50

> <# Confs.>
25

> <canonical_smiles>
FC1=CC(NC(CC2=CN=C(NC3=NC=NC4=C3C=C(OC)C(OCCOC)=C4)S2)=O)=CC=C1

> <standard_relation>
=

> <Publication_ID>
nan

> <predicted_activity_value>
8.045757490560675

> <actual_activity_value>
8.096910013008056

> <Compound>
4

> <standard_units>
nM

> hash
10565851915682723624

$$$$
1_
XXILIB    08252103493D 0   0.00000     0.00000

 41 44  0     1  0            999 V2000
   -1.9196    1.5925   -5.4604 P   0  0  2  0  0  5           0  0  0
    0.0199   -5.6419   11.0302 F   0  0  0  0  0  1           0  0  0
   -2.6848    0.5430   -6.2146 O   0  0  0  0  0  2           0  0  0
   -0.3544    1.2621   -5.2165 O   0  0  0  0  0  2           0  0  0
   -2.4924    1.8915   -3.9771 O   0  0  0  0  0  2           0  0  0
   -1.9278    3.0509   -6.1567 O   0  0  0  0  0  2           0  0  0
   -0.0000    0.0000    0.0000 O   0  0  0  0  0  2           0  0  0
   -3.8773   -6.3708    5.7328 O   0  0  0  0  0  2           0  0  0
   -5.1954   -3.2772    4.4872 N   0  0  0  0  0  3           0  0  0
   -4.8682   -2.0506    4.0518 N   0  0  0  0  0  3           0  0  0
    0.1114    0.0012    4.8150 N   0  0  0  0  0  3           0  0  0
   -1.9210    0.0160    6.0917 N   0  0  0  0  0  3           0  0  0
   -3.4400   -5.3288    7.7644 N   0  0  0  0  0  3           0  0  0
    1.9578   -1.1803   -3.6470 N   0  0  1  0  0  3           0  0  0
   -0.5009   -6.0553    9.8664 C   0  0  0  0  0  4           0  0  0
   -0.5887   -0.0000    1.2326 C   0  0  0  0  0  4           0  0  0
   -0.5874    0.0066    5.9620 C   0  0  0  0  0  4           0  0  0
   -0.5951    0.0024    3.6753 C   0  0  0  0  0  4           0  0  0
   -5.0979   -3.4358    5.8422 C   0  0  0  0  0  4           0  0  0
   -4.5390   -1.3936    5.1726 C   0  0  0  0  0  4           0  0  0
   -2.6279    0.0161    4.9369 C   0  0  0  0  0  4           0  0  0
   -2.2381   -5.9204    8.1970 C   0  0  0  0  0  4           0  0  0
   -2.0033    0.0066    3.6694 C   0  0  0  0  0  4           0  0  0
   -1.6929   -5.4949    9.4128 C   0  0  0  0  0  4           0  0  0
    0.1587   -7.0349    9.1319 C   0  0  0  0  0  4           0  0  0
    0.0867   -0.0000    2.4581 C   0  0  0  0  0  4           0  0  0
   -1.9800   -0.0015    1.2265 C   0  0  0  0  0  4           0  0  0
   -4.6804   -2.2139    6.3201 C   0  0  0  0  0  4           0  0  0
   -1.5797   -6.9086    7.4529 C   0  0  0  0  0  4           0  0  0
   -2.6819    0.0025    2.4298 C   0  0  0  0  0  4           0  0  0
   -0.3849   -7.4624    7.9224 C   0  0  0  0  0  4           0  0  0
   -4.1753   -5.5680    6.6164 C   0  0  0  0  0  4           0  0  0
   -0.0123    0.0949   -4.4858 C   0  0  0  0  0  4           0  0  0
    1.4278    0.0000    0.0000 C   0  0  0  0  0  4           0  0  0
    1.5053   -0.0003   -4.3886 C   0  0  0  0  0  4           0  0  0
    1.4657   -1.2091   -2.2629 C   0  0  0  0  0  4           0  0  0
    1.6230   -2.4411   -4.3233 C   0  0  0  0  0  4           0  0  0
   -4.1210    0.0303    5.1163 C   0  0  0  0  0  4           0  0  0
   -5.4184   -4.7121    6.5277 C   0  0  0  0  0  4           0  0  0
    1.9220    0.0000   -1.4413 C   0  0  0  0  0  4           0  0  0
    2.2605   -2.5267   -5.7064 C   0  0  0  0  0  4           0  0  0
  1  3  2  0     0  0
  1  4  1  0     0  0
  1  5  1  0     0  0
  1  6  1  0     0  0
  2 15  1  0     0  0
  4 33  1  0     0  0
  7 16  1  0     0  0
  7 34  1  0     0  0
  8 32  2  0     0  0
  9 10  1  0     0  0
  9 19  1  0     0  0
 10 20  2  0     0  0
 11 17  2  0     0  0
 11 18  1  0     0  0
 12 17  1  0     0  0
 12 21  2  0     0  0
 13 22  1  0     0  0
 13 32  1  0     0  0
 14 35  1  0     0  0
 14 36  1  0     0  0
 14 37  1  0     0  0
 15 24  2  0     0  0
 15 25  1  0     0  0
 16 26  2  0     0  0
 16 27  1  0     0  0
 18 23  2  0     0  0
 18 26  1  0     0  0
 19 28  2  0     0  0
 19 39  1  0     0  0
 20 28  1  0     0  0
 20 38  1  0     0  0
 21 23  1  0     0  0
 21 38  1  0     0  0
 22 24  1  0     0  0
 22 29  2  0     0  0
 23 30  1  0     0  0
 25 31  2  0     0  0
 27 30  2  0     0  0
 29 31  1  0     0  0
 32 39  1  0     0  0
 33 35  1  0     0  0
 34 40  1  0     0  0
 36 40  1  0     0  0
 37 41  1  0     0  0
M  END
> <standard_type>
pIC50

> <# Confs.>
25

> <canonical_smiles>
FC1=CC(NC(CC2=CC(CC3=NC=NC4=C3C=CC(OCCCN(CCOP(O)(O)=O)CC)=C4)=NN2)=O)=CC=C1

> <standard_relation>
=

> <Publication_ID>
Wang_2009

> <predicted_activity_value>
9.455931955649724

> <actual_activity_value>
9.522878745280337

> <Compound>
1

> <standard_units>
nM

> hash
11804495725534374177

$$$$
1_
XXILIB    08252103493D 0   0.00000     0.00000

 41 44  0     1  0            999 V2000
    4.4437   -6.2519   -0.8871 P   0  0  2  0  0  5           0  0  0
    0.0199   -5.6419   11.0302 F   0  0  0  0  0  1           0  0  0
    5.9297   -6.4269   -1.0174 O   0  0  0  0  0  2           0  0  0
    3.8657   -4.8418   -1.4312 O   0  0  0  0  0  2           0  0  0
    3.8977   -6.3383    0.6335 O   0  0  0  0  0  2           0  0  0
    3.5717   -7.3763   -1.6534 O   0  0  0  0  0  2           0  0  0
   -0.0000    0.0000    0.0000 O   0  0  0  0  0  2           0  0  0
   -3.8773   -6.3708    5.7328 O   0  0  0  0  0  2           0  0  0
   -5.1954   -3.2772    4.4872 N   0  0  0  0  0  3           0  0  0
   -4.8682   -2.0506    4.0518 N   0  0  0  0  0  3           0  0  0
    0.1114    0.0012    4.8150 N   0  0  0  0  0  3           0  0  0
   -1.9210    0.0160    6.0917 N   0  0  0  0  0  3           0  0  0
   -3.4400   -5.3288    7.7644 N   0  0  0  0  0  3           0  0  0
    4.0771   -1.1656   -0.9667 N   0  0  1  0  0  3           0  0  0
   -0.5009   -6.0553    9.8664 C   0  0  0  0  0  4           0  0  0
   -0.5887   -0.0000    1.2326 C   0  0  0  0  0  4           0  0  0
   -0.5874    0.0066    5.9620 C   0  0  0  0  0  4           0  0  0
   -0.5951    0.0024    3.6753 C   0  0  0  0  0  4           0  0  0
   -5.0979   -3.4358    5.8422 C   0  0  0  0  0  4           0  0  0
   -4.5390   -1.3936    5.1726 C   0  0  0  0  0  4           0  0  0
   -2.6279    0.0161    4.9369 C   0  0  0  0  0  4           0  0  0
   -2.2381   -5.9204    8.1970 C   0  0  0  0  0  4           0  0  0
   -2.0033    0.0066    3.6694 C   0  0  0  0  0  4           0  0  0
   -1.6929   -5.4949    9.4128 C   0  0  0  0  0  4           0  0  0
    0.1587   -7.0349    9.1319 C   0  0  0  0  0  4           0  0  0
    0.0867   -0.0000    2.4581 C   0  0  0  0  0  4           0  0  0
   -1.9800   -0.0015    1.2265 C   0  0  0  0  0  4           0  0  0
   -4.6804   -2.2139    6.3201 C   0  0  0  0  0  4           0  0  0
   -1.5797   -6.9086    7.4529 C   0  0  0  0  0  4           0  0  0
   -2.6819    0.0025    2.4298 C   0  0  0  0  0  4           0  0  0
   -0.3849   -7.4624    7.9224 C   0  0  0  0  0  4           0  0  0
   -4.1753   -5.5680    6.6164 C   0  0  0  0  0  4           0  0  0
    4.3362   -3.6411   -0.8396 C   0  0  0  0  0  4           0  0  0
    1.4278    0.0000    0.0000 C   0  0  0  0  0  4           0  0  0
    3.6530   -2.4574   -1.5132 C   0  0  0  0  0  4           0  0  0
    3.4467   -0.0000   -1.5837 C   0  0  0  0  0  4           0  0  0
    5.5145   -1.0370   -0.7352 C   0  0  0  0  0  4           0  0  0
   -4.1210    0.0303    5.1163 C   0  0  0  0  0  4           0  0  0
   -5.4184   -4.7121    6.5277 C   0  0  0  0  0  4           0  0  0
    1.9220    0.0000   -1.4413 C   0  0  0  0  0  4           0  0  0
    6.3120   -1.2128   -2.0236 C   0  0  0  0  0  4           0  0  0
  1  3  2  0     0  0
  1  4  1  0     0  0
  1  5  1  0     0  0
  1  6  1  0     0  0
  2 15  1  0     0  0
  4 33  1  0     0  0
  7 16  1  0     0  0
  7 34  1  0     0  0
  8 32  2  0     0  0
  9 10  1  0     0  0
  9 19  1  0     0  0
 10 20  2  0     0  0
 11 17  2  0     0  0
 11 18  1  0     0  0
 12 17  1  0     0  0
 12 21  2  0     0  0
 13 22  1  0     0  0
 13 32  1  0     0  0
 14 35  1  0     0  0
 14 36  1  0     0  0
 14 37  1  0     0  0
 15 24  2  0     0  0
 15 25  1  0     0  0
 16 26  2  0     0  0
 16 27  1  0     0  0
 18 23  2  0     0  0
 18 26  1  0     0  0
 19 28  2  0     0  0
 19 39  1  0     0  0
 20 28  1  0     0  0
 20 38  1  0     0  0
 21 23  1  0     0  0
 21 38  1  0     0  0
 22 24  1  0     0  0
 22 29  2  0     0  0
 23 30  1  0     0  0
 25 31  2  0     0  0
 27 30  2  0     0  0
 29 31  1  0     0  0
 32 39  1  0     0  0
 33 35  1  0     0  0
 34 40  1  0     0  0
 36 40  1  0     0  0
 37 41  1  0     0  0
M  END
> <standard_type>
pIC50

> <# Confs.>
25

> <canonical_smiles>
FC1=CC(NC(CC2=CC(CC3=NC=NC4=C3C=CC(OCCCN(CCOP(O)(O)=O)CC)=C4)=NN2)=O)=CC=C1

> <standard_relation>
=

> <Publication_ID>
Wang_2009

> <predicted_activity_value>
9.455931955649724

> <actual_activity_value>
9.522878745280337

> <Compound>
1

> <standard_units>
nM

> hash
11804495725534374177

$$$$
1_
XXILIB    08252103493D 0   0.00000     0.00000

 41 44  0     1  0            999 V2000
   -1.9196    1.5925   -5.4604 P   0  0  2  0  0  5           0  0  0
   -9.2273    3.0951   12.1040 F   0  0  0  0  0  1           0  0  0
   -2.6848    0.5430   -6.2146 O   0  0  0  0  0  2           0  0  0
   -0.3544    1.2621   -5.2165 O   0  0  0  0  0  2           0  0  0
   -2.4924    1.8915   -3.9771 O   0  0  0  0  0  2           0  0  0
   -1.9278    3.0509   -6.1567 O   0  0  0  0  0  2           0  0  0
    0.0000    0.0000    0.0000 O   0  0  0  0  0  2           0  0  0
   -7.5532    5.3798    6.1240 O   0  0  0  0  0  2           0  0  0
   -5.1127    3.3561    4.4487 N   0  0  0  0  0  3           0  0  0
   -4.8313    2.1126    4.0294 N   0  0  0  0  0  3           0  0  0
    0.1114    0.0012    4.8150 N   0  0  0  0  0  3           0  0  0
   -1.9210    0.0160    6.0917 N   0  0  0  0  0  3           0  0  0
   -6.9247    4.4104    8.1413 N   0  0  0  0  0  3           0  0  0
    1.9578   -1.1803   -3.6470 N   0  0  1  0  0  3           0  0  0
   -9.2685    3.6364   10.8785 C   0  0  0  0  0  4           0  0  0
   -0.5887    0.0000    1.2326 C   0  0  0  0  0  4           0  0  0
   -0.5874    0.0066    5.9620 C   0  0  0  0  0  4           0  0  0
   -0.5951    0.0024    3.6753 C   0  0  0  0  0  4           0  0  0
   -4.9825    3.5357    5.7983 C   0  0  0  0  0  4           0  0  0
   -4.5136    1.4619    5.1573 C   0  0  0  0  0  4           0  0  0
   -2.6279    0.0161    4.9369 C   0  0  0  0  0  4           0  0  0
   -8.1306    4.3135    8.8612 C   0  0  0  0  0  4           0  0  0
   -2.0033    0.0066    3.6694 C   0  0  0  0  0  4           0  0  0
   -8.0918    3.7530   10.1420 C   0  0  0  0  0  4           0  0  0
  -10.4854    4.0702   10.3634 C   0  0  0  0  0  4           0  0  0
    0.0867    0.0000    2.4581 C   0  0  0  0  0  4           0  0  0
   -1.9800   -0.0015    1.2265 C   0  0  0  0  0  4           0  0  0
   -4.5799    2.3137    6.2885 C   0  0  0  0  0  4           0  0  0
   -9.3530    4.7547    8.3370 C   0  0  0  0  0  4           0  0  0
   -2.6819    0.0025    2.4298 C   0  0  0  0  0  4           0  0  0
  -10.5252    4.6321    9.0891 C   0  0  0  0  0  4           0  0  0
   -6.6945    4.9172    6.8741 C   0  0  0  0  0  4           0  0  0
   -0.0123    0.0949   -4.4858 C   0  0  0  0  0  4           0  0  0
    1.4278    0.0000    0.0000 C   0  0  0  0  0  4           0  0  0
    1.5053   -0.0003   -4.3886 C   0  0  0  0  0  4           0  0  0
    1.4657   -1.2091   -2.2629 C   0  0  0  0  0  4           0  0  0
    1.6230   -2.4411   -4.3233 C   0  0  0  0  0  4           0  0  0
   -4.1210    0.0303    5.1163 C   0  0  0  0  0  4           0  0  0
   -5.2413    4.8356    6.4653 C   0  0  0  0  0  4           0  0  0
    1.9220    0.0000   -1.4413 C   0  0  0  0  0  4           0  0  0
    2.2605   -2.5267   -5.7064 C   0  0  0  0  0  4           0  0  0
  1  3  2  0     0  0
  1  4  1  0     0  0
  1  5  1  0     0  0
  1  6  1  0     0  0
  2 15  1  0     0  0
  4 33  1  0     0  0
  7 16  1  0     0  0
  7 34  1  0     0  0
  8 32  2  0     0  0
  9 10  1  0     0  0
  9 19  1  0     0  0
 10 20  2  0     0  0
 11 17  2  0     0  0
 11 18  1  0     0  0
 12 17  1  0     0  0
 12 21  2  0     0  0
 13 22  1  0     0  0
 13 32  1  0     0  0
 14 35  1  0     0  0
 14 36  1  0     0  0
 14 37  1  0     0  0
 15 24  2  0     0  0
 15 25  1  0     0  0
 16 26  2  0     0  0
 16 27  1  0     0  0
 18 23  2  0     0  0
 18 26  1  0     0  0
 19 28  2  0     0  0
 19 39  1  0     0  0
 20 28  1  0     0  0
 20 38  1  0     0  0
 21 23  1  0     0  0
 21 38  1  0     0  0
 22 24  1  0     0  0
 22 29  2  0     0  0
 23 30  1  0     0  0
 25 31  2  0     0  0
 27 30  2  0     0  0
 29 31  1  0     0  0
 32 39  1  0     0  0
 33 35  1  0     0  0
 34 40  1  0     0  0
 36 40  1  0     0  0
 37 41  1  0     0  0
M  END
> <standard_type>
pIC50

> <# Confs.>
25

> <canonical_smiles>
FC1=CC(NC(CC2=CC(CC3=NC=NC4=C3C=CC(OCCCN(CCOP(O)(O)=O)CC)=C4)=NN2)=O)=CC=C1

> <standard_relation>
=

> <Publication_ID>
Wang_2009

> <predicted_activity_value>
9.455931955649724

> <actual_activity_value>
9.522878745280337

> <Compound>
1

> <standard_units>
nM

> hash
11804495725534374177

$$$$
1_
XXILIB    08252103493D 0   0.00000     0.00000

 41 44  0     1  0            999 V2000
    3.6358    4.1663   -5.0678 P   0  0  2  0  0  5           0  0  0
    0.0199   -5.6419   11.0302 F   0  0  0  0  0  1           0  0  0
    5.0585    4.1949   -5.5482 O   0  0  0  0  0  2           0  0  0
    3.4441    3.8027   -3.5027 O   0  0  0  0  0  2           0  0  0
    2.6989    3.0942   -5.8364 O   0  0  0  0  0  2           0  0  0
    2.8384    5.5579   -5.2667 O   0  0  0  0  0  2           0  0  0
   -0.0000    0.0000    0.0000 O   0  0  0  0  0  2           0  0  0
   -3.8773   -6.3708    5.7328 O   0  0  0  0  0  2           0  0  0
   -5.1954   -3.2772    4.4872 N   0  0  0  0  0  3           0  0  0
   -4.8682   -2.0506    4.0518 N   0  0  0  0  0  3           0  0  0
    0.1114    0.0012    4.8150 N   0  0  0  0  0  3           0  0  0
   -1.9210    0.0160    6.0917 N   0  0  0  0  0  3           0  0  0
   -3.4400   -5.3288    7.7644 N   0  0  0  0  0  3           0  0  0
    4.0804    1.1716   -0.9635 N   0  0  1  0  0  3           0  0  0
   -0.5009   -6.0553    9.8664 C   0  0  0  0  0  4           0  0  0
   -0.5887   -0.0000    1.2326 C   0  0  0  0  0  4           0  0  0
   -0.5874    0.0066    5.9620 C   0  0  0  0  0  4           0  0  0
   -0.5951    0.0024    3.6753 C   0  0  0  0  0  4           0  0  0
   -5.0979   -3.4358    5.8422 C   0  0  0  0  0  4           0  0  0
   -4.5390   -1.3936    5.1726 C   0  0  0  0  0  4           0  0  0
   -2.6279    0.0161    4.9369 C   0  0  0  0  0  4           0  0  0
   -2.2381   -5.9204    8.1970 C   0  0  0  0  0  4           0  0  0
   -2.0033    0.0066    3.6694 C   0  0  0  0  0  4           0  0  0
   -1.6929   -5.4949    9.4128 C   0  0  0  0  0  4           0  0  0
    0.1587   -7.0349    9.1319 C   0  0  0  0  0  4           0  0  0
    0.0867   -0.0000    2.4581 C   0  0  0  0  0  4           0  0  0
   -1.9800   -0.0015    1.2265 C   0  0  0  0  0  4           0  0  0
   -4.6804   -2.2139    6.3201 C   0  0  0  0  0  4           0  0  0
   -1.5797   -6.9086    7.4529 C   0  0  0  0  0  4           0  0  0
   -2.6819    0.0025    2.4298 C   0  0  0  0  0  4           0  0  0
   -0.3849   -7.4624    7.9224 C   0  0  0  0  0  4           0  0  0
   -4.1753   -5.5680    6.6164 C   0  0  0  0  0  4           0  0  0
    3.9173    2.5501   -3.0334 C   0  0  0  0  0  4           0  0  0
    1.4278   -0.0000    0.0000 C   0  0  0  0  0  4           0  0  0
    3.6256    2.4388   -1.5421 C   0  0  0  0  0  4           0  0  0
    3.4467   -0.0000   -1.5837 C   0  0  0  0  0  4           0  0  0
    5.5420    1.0239   -0.9930 C   0  0  0  0  0  4           0  0  0
   -4.1210    0.0303    5.1163 C   0  0  0  0  0  4           0  0  0
   -5.4184   -4.7121    6.5277 C   0  0  0  0  0  4           0  0  0
    1.9220    0.0000   -1.4413 C   0  0  0  0  0  4           0  0  0
    6.2375    2.1331   -0.2100 C   0  0  0  0  0  4           0  0  0
  1  3  2  0     0  0
  1  4  1  0     0  0
  1  5  1  0     0  0
  1  6  1  0     0  0
  2 15  1  0     0  0
  4 33  1  0     0  0
  7 16  1  0     0  0
  7 34  1  0     0  0
  8 32  2  0     0  0
  9 10  1  0     0  0
  9 19  1  0     0  0
 10 20  2  0     0  0
 11 17  2  0     0  0
 11 18  1  0     0  0
 12 17  1  0     0  0
 12 21  2  0     0  0
 13 22  1  0     0  0
 13 32  1  0     0  0
 14 35  1  0     0  0
 14 36  1  0     0  0
 14 37  1  0     0  0
 15 24  2  0     0  0
 15 25  1  0     0  0
 16 26  2  0     0  0
 16 27  1  0     0  0
 18 23  2  0     0  0
 18 26  1  0     0  0
 19 28  2  0     0  0
 19 39  1  0     0  0
 20 28  1  0     0  0
 20 38  1  0     0  0
 21 23  1  0     0  0
 21 38  1  0     0  0
 22 24  1  0     0  0
 22 29  2  0     0  0
 23 30  1  0     0  0
 25 31  2  0     0  0
 27 30  2  0     0  0
 29 31  1  0     0  0
 32 39  1  0     0  0
 33 35  1  0     0  0
 34 40  1  0     0  0
 36 40  1  0     0  0
 37 41  1  0     0  0
M  END
> <standard_type>
pIC50

> <# Confs.>
25

> <canonical_smiles>
FC1=CC(NC(CC2=CC(CC3=NC=NC4=C3C=CC(OCCCN(CCOP(O)(O)=O)CC)=C4)=NN2)=O)=CC=C1

> <standard_relation>
=

> <Publication_ID>
Wang_2009

> <predicted_activity_value>
9.455931955649724

> <actual_activity_value>
9.522878745280337

> <Compound>
1

> <standard_units>
nM

> hash
11804495725534374177

$$$$
1_
XXILIB    08252103493D 0   0.00000     0.00000

 41 44  0     1  0            999 V2000
   -1.9196    1.5925   -5.4604 P   0  0  2  0  0  5           0  0  0
   -9.4263   -2.8427   12.1092 F   0  0  0  0  0  1           0  0  0
   -2.6848    0.5430   -6.2146 O   0  0  0  0  0  2           0  0  0
   -0.3544    1.2621   -5.2165 O   0  0  0  0  0  2           0  0  0
   -2.4924    1.8915   -3.9771 O   0  0  0  0  0  2           0  0  0
   -1.9278    3.0509   -6.1567 O   0  0  0  0  0  2           0  0  0
   -0.0000    0.0000    0.0000 O   0  0  0  0  0  2           0  0  0
   -7.7423   -5.1758    6.1507 O   0  0  0  0  0  2           0  0  0
   -5.1954   -3.2772    4.4872 N   0  0  0  0  0  3           0  0  0
   -4.8682   -2.0506    4.0518 N   0  0  0  0  0  3           0  0  0
    0.1114    0.0012    4.8150 N   0  0  0  0  0  3           0  0  0
   -1.9210    0.0160    6.0917 N   0  0  0  0  0  3           0  0  0
   -7.1125   -4.2207    8.1745 N   0  0  0  0  0  3           0  0  0
    1.9578   -1.1803   -3.6470 N   0  0  1  0  0  3           0  0  0
   -9.4693   -3.3690   10.8772 C   0  0  0  0  0  4           0  0  0
   -0.5887   -0.0000    1.2326 C   0  0  0  0  0  4           0  0  0
   -0.5874    0.0066    5.9620 C   0  0  0  0  0  4           0  0  0
   -0.5951    0.0024    3.6753 C   0  0  0  0  0  4           0  0  0
   -5.0979   -3.4358    5.8422 C   0  0  0  0  0  4           0  0  0
   -4.5390   -1.3936    5.1726 C   0  0  0  0  0  4           0  0  0
   -2.6279    0.0161    4.9369 C   0  0  0  0  0  4           0  0  0
   -8.3262   -4.0741    8.8724 C   0  0  0  0  0  4           0  0  0
   -2.0033    0.0066    3.6694 C   0  0  0  0  0  4           0  0  0
   -8.2867   -3.5217   10.1568 C   0  0  0  0  0  4           0  0  0
  -10.6931   -3.7548   10.3410 C   0  0  0  0  0  4           0  0  0
    0.0867   -0.0000    2.4581 C   0  0  0  0  0  4           0  0  0
   -1.9800   -0.0015    1.2265 C   0  0  0  0  0  4           0  0  0
   -4.6804   -2.2139    6.3201 C   0  0  0  0  0  4           0  0  0
   -9.5562   -4.4629    8.3252 C   0  0  0  0  0  4           0  0  0
   -2.6819    0.0025    2.4298 C   0  0  0  0  0  4           0  0  0
  -10.7346   -4.3018    9.0603 C   0  0  0  0  0  4           0  0  0
   -6.8812   -4.7314    6.9090 C   0  0  0  0  0  4           0  0  0
   -0.0123    0.0949   -4.4858 C   0  0  0  0  0  4           0  0  0
    1.4278    0.0000    0.0000 C   0  0  0  0  0  4           0  0  0
    1.5053   -0.0003   -4.3886 C   0  0  0  0  0  4           0  0  0
    1.4657   -1.2091   -2.2629 C   0  0  0  0  0  4           0  0  0
    1.6230   -2.4411   -4.3233 C   0  0  0  0  0  4           0  0  0
   -4.1210    0.0303    5.1163 C   0  0  0  0  0  4           0  0  0
   -5.4184   -4.7121    6.5277 C   0  0  0  0  0  4           0  0  0
    1.9220    0.0000   -1.4413 C   0  0  0  0  0  4           0  0  0
    2.2605   -2.5267   -5.7064 C   0  0  0  0  0  4           0  0  0
  1  3  2  0     0  0
  1  4  1  0     0  0
  1  5  1  0     0  0
  1  6  1  0     0  0
  2 15  1  0     0  0
  4 33  1  0     0  0
  7 16  1  0     0  0
  7 34  1  0     0  0
  8 32  2  0     0  0
  9 10  1  0     0  0
  9 19  1  0     0  0
 10 20  2  0     0  0
 11 17  2  0     0  0
 11 18  1  0     0  0
 12 17  1  0     0  0
 12 21  2  0     0  0
 13 22  1  0     0  0
 13 32  1  0     0  0
 14 35  1  0     0  0
 14 36  1  0     0  0
 14 37  1  0     0  0
 15 24  2  0     0  0
 15 25  1  0     0  0
 16 26  2  0     0  0
 16 27  1  0     0  0
 18 23  2  0     0  0
 18 26  1  0     0  0
 19 28  2  0     0  0
 19 39  1  0     0  0
 20 28  1  0     0  0
 20 38  1  0     0  0
 21 23  1  0     0  0
 21 38  1  0     0  0
 22 24  1  0     0  0
 22 29  2  0     0  0
 23 30  1  0     0  0
 25 31  2  0     0  0
 27 30  2  0     0  0
 29 31  1  0     0  0
 32 39  1  0     0  0
 33 35  1  0     0  0
 34 40  1  0     0  0
 36 40  1  0     0  0
 37 41  1  0     0  0
M  END
> <standard_type>
pIC50

> <# Confs.>
25

> <canonical_smiles>
FC1=CC(NC(CC2=CC(CC3=NC=NC4=C3C=CC(OCCCN(CCOP(O)(O)=O)CC)=C4)=NN2)=O)=CC=C1

> <standard_relation>
=

> <Publication_ID>
Wang_2009

> <predicted_activity_value>
9.455931955649724

> <actual_activity_value>
9.522878745280337

> <Compound>
1

> <standard_units>
nM

> hash
11804495725534374177

$$$$
1_
XXILIB    08252103493D 0   0.00000     0.00000

 41 44  0     1  0            999 V2000
    3.6358    4.1663   -5.0678 P   0  0  2  0  0  5           0  0  0
   -9.2273    3.0951   12.1040 F   0  0  0  0  0  1           0  0  0
    5.0585    4.1949   -5.5482 O   0  0  0  0  0  2           0  0  0
    3.4441    3.8027   -3.5027 O   0  0  0  0  0  2           0  0  0
    2.6989    3.0942   -5.8364 O   0  0  0  0  0  2           0  0  0
    2.8384    5.5579   -5.2667 O   0  0  0  0  0  2           0  0  0
    0.0000    0.0000    0.0000 O   0  0  0  0  0  2           0  0  0
   -7.5532    5.3798    6.1240 O   0  0  0  0  0  2           0  0  0
   -5.1127    3.3561    4.4487 N   0  0  0  0  0  3           0  0  0
   -4.8313    2.1126    4.0294 N   0  0  0  0  0  3           0  0  0
    0.1114    0.0012    4.8150 N   0  0  0  0  0  3           0  0  0
   -1.9210    0.0160    6.0917 N   0  0  0  0  0  3           0  0  0
   -6.9247    4.4104    8.1413 N   0  0  0  0  0  3           0  0  0
    4.0804    1.1716   -0.9635 N   0  0  1  0  0  3           0  0  0
   -9.2685    3.6364   10.8785 C   0  0  0  0  0  4           0  0  0
   -0.5887    0.0000    1.2326 C   0  0  0  0  0  4           0  0  0
   -0.5874    0.0066    5.9620 C   0  0  0  0  0  4           0  0  0
   -0.5951    0.0024    3.6753 C   0  0  0  0  0  4           0  0  0
   -4.9825    3.5357    5.7983 C   0  0  0  0  0  4           0  0  0
   -4.5136    1.4619    5.1573 C   0  0  0  0  0  4           0  0  0
   -2.6279    0.0161    4.9369 C   0  0  0  0  0  4           0  0  0
   -8.1306    4.3135    8.8612 C   0  0  0  0  0  4           0  0  0
   -2.0033    0.0066    3.6694 C   0  0  0  0  0  4           0  0  0
   -8.0918    3.7530   10.1420 C   0  0  0  0  0  4           0  0  0
  -10.4854    4.0702   10.3634 C   0  0  0  0  0  4           0  0  0
    0.0867    0.0000    2.4581 C   0  0  0  0  0  4           0  0  0
   -1.9800   -0.0015    1.2265 C   0  0  0  0  0  4           0  0  0
   -4.5799    2.3137    6.2885 C   0  0  0  0  0  4           0  0  0
   -9.3530    4.7547    8.3370 C   0  0  0  0  0  4           0  0  0
   -2.6819    0.0025    2.4298 C   0  0  0  0  0  4           0  0  0
  -10.5252    4.6321    9.0891 C   0  0  0  0  0  4           0  0  0
   -6.6945    4.9172    6.8741 C   0  0  0  0  0  4           0  0  0
    3.9173    2.5501   -3.0334 C   0  0  0  0  0  4           0  0  0
    1.4278   -0.0000    0.0000 C   0  0  0  0  0  4           0  0  0
    3.6256    2.4388   -1.5421 C   0  0  0  0  0  4           0  0  0
    3.4467   -0.0000   -1.5837 C   0  0  0  0  0  4           0  0  0
    5.5420    1.0239   -0.9930 C   0  0  0  0  0  4           0  0  0
   -4.1210    0.0303    5.1163 C   0  0  0  0  0  4           0  0  0
   -5.2413    4.8356    6.4653 C   0  0  0  0  0  4           0  0  0
    1.9220    0.0000   -1.4413 C   0  0  0  0  0  4           0  0  0
    6.2375    2.1331   -0.2100 C   0  0  0  0  0  4           0  0  0
  1  3  2  0     0  0
  1  4  1  0     0  0
  1  5  1  0     0  0
  1  6  1  0     0  0
  2 15  1  0     0  0
  4 33  1  0     0  0
  7 16  1  0     0  0
  7 34  1  0     0  0
  8 32  2  0     0  0
  9 10  1  0     0  0
  9 19  1  0     0  0
 10 20  2  0     0  0
 11 17  2  0     0  0
 11 18  1  0     0  0
 12 17  1  0     0  0
 12 21  2  0     0  0
 13 22  1  0     0  0
 13 32  1  0     0  0
 14 35  1  0     0  0
 14 36  1  0     0  0
 14 37  1  0     0  0
 15 24  2  0     0  0
 15 25  1  0     0  0
 16 26  2  0     0  0
 16 27  1  0     0  0
 18 23  2  0     0  0
 18 26  1  0     0  0
 19 28  2  0     0  0
 19 39  1  0     0  0
 20 28  1  0     0  0
 20 38  1  0     0  0
 21 23  1  0     0  0
 21 38  1  0     0  0
 22 24  1  0     0  0
 22 29  2  0     0  0
 23 30  1  0     0  0
 25 31  2  0     0  0
 27 30  2  0     0  0
 29 31  1  0     0  0
 32 39  1  0     0  0
 33 35  1  0     0  0
 34 40  1  0     0  0
 36 40  1  0     0  0
 37 41  1  0     0  0
M  END
> <standard_type>
pIC50

> <# Confs.>
25

> <canonical_smiles>
FC1=CC(NC(CC2=CC(CC3=NC=NC4=C3C=CC(OCCCN(CCOP(O)(O)=O)CC)=C4)=NN2)=O)=CC=C1

> <standard_relation>
=

> <Publication_ID>
Wang_2009

> <predicted_activity_value>
9.455931955649724

> <actual_activity_value>
9.522878745280337

> <Compound>
1

> <standard_units>
nM

> hash
11804495725534374177

$$$$
1_
XXILIB    08252103493D 0   0.00000     0.00000

 41 44  0     1  0            999 V2000
    4.4437   -6.2519   -0.8871 P   0  0  2  0  0  5           0  0  0
   -9.2273    3.0951   12.1040 F   0  0  0  0  0  1           0  0  0
    5.9297   -6.4269   -1.0174 O   0  0  0  0  0  2           0  0  0
    3.8657   -4.8418   -1.4312 O   0  0  0  0  0  2           0  0  0
    3.8977   -6.3383    0.6335 O   0  0  0  0  0  2           0  0  0
    3.5717   -7.3763   -1.6534 O   0  0  0  0  0  2           0  0  0
    0.0000    0.0000    0.0000 O   0  0  0  0  0  2           0  0  0
   -7.5532    5.3798    6.1240 O   0  0  0  0  0  2           0  0  0
   -5.1127    3.3561    4.4487 N   0  0  0  0  0  3           0  0  0
   -4.8313    2.1126    4.0294 N   0  0  0  0  0  3           0  0  0
    0.1114    0.0012    4.8150 N   0  0  0  0  0  3           0  0  0
   -1.9210    0.0160    6.0917 N   0  0  0  0  0  3           0  0  0
   -6.9247    4.4104    8.1413 N   0  0  0  0  0  3           0  0  0
    4.0771   -1.1656   -0.9667 N   0  0  1  0  0  3           0  0  0
   -9.2685    3.6364   10.8785 C   0  0  0  0  0  4           0  0  0
   -0.5887    0.0000    1.2326 C   0  0  0  0  0  4           0  0  0
   -0.5874    0.0066    5.9620 C   0  0  0  0  0  4           0  0  0
   -0.5951    0.0024    3.6753 C   0  0  0  0  0  4           0  0  0
   -4.9825    3.5357    5.7983 C   0  0  0  0  0  4           0  0  0
   -4.5136    1.4619    5.1573 C   0  0  0  0  0  4           0  0  0
   -2.6279    0.0161    4.9369 C   0  0  0  0  0  4           0  0  0
   -8.1306    4.3135    8.8612 C   0  0  0  0  0  4           0  0  0
   -2.0033    0.0066    3.6694 C   0  0  0  0  0  4           0  0  0
   -8.0918    3.7530   10.1420 C   0  0  0  0  0  4           0  0  0
  -10.4854    4.0702   10.3634 C   0  0  0  0  0  4           0  0  0
    0.0867    0.0000    2.4581 C   0  0  0  0  0  4           0  0  0
   -1.9800   -0.0015    1.2265 C   0  0  0  0  0  4           0  0  0
   -4.5799    2.3137    6.2885 C   0  0  0  0  0  4           0  0  0
   -9.3530    4.7547    8.3370 C   0  0  0  0  0  4           0  0  0
   -2.6819    0.0025    2.4298 C   0  0  0  0  0  4           0  0  0
  -10.5252    4.6321    9.0891 C   0  0  0  0  0  4           0  0  0
   -6.6945    4.9172    6.8741 C   0  0  0  0  0  4           0  0  0
    4.3362   -3.6411   -0.8396 C   0  0  0  0  0  4           0  0  0
    1.4278    0.0000    0.0000 C   0  0  0  0  0  4           0  0  0
    3.6530   -2.4574   -1.5132 C   0  0  0  0  0  4           0  0  0
    3.4467   -0.0000   -1.5837 C   0  0  0  0  0  4           0  0  0
    5.5145   -1.0370   -0.7352 C   0  0  0  0  0  4           0  0  0
   -4.1210    0.0303    5.1163 C   0  0  0  0  0  4           0  0  0
   -5.2413    4.8356    6.4653 C   0  0  0  0  0  4           0  0  0
    1.9220    0.0000   -1.4413 C   0  0  0  0  0  4           0  0  0
    6.3120   -1.2128   -2.0236 C   0  0  0  0  0  4           0  0  0
  1  3  2  0     0  0
  1  4  1  0     0  0
  1  5  1  0     0  0
  1  6  1  0     0  0
  2 15  1  0     0  0
  4 33  1  0     0  0
  7 16  1  0     0  0
  7 34  1  0     0  0
  8 32  2  0     0  0
  9 10  1  0     0  0
  9 19  1  0     0  0
 10 20  2  0     0  0
 11 17  2  0     0  0
 11 18  1  0     0  0
 12 17  1  0     0  0
 12 21  2  0     0  0
 13 22  1  0     0  0
 13 32  1  0     0  0
 14 35  1  0     0  0
 14 36  1  0     0  0
 14 37  1  0     0  0
 15 24  2  0     0  0
 15 25  1  0     0  0
 16 26  2  0     0  0
 16 27  1  0     0  0
 18 23  2  0     0  0
 18 26  1  0     0  0
 19 28  2  0     0  0
 19 39  1  0     0  0
 20 28  1  0     0  0
 20 38  1  0     0  0
 21 23  1  0     0  0
 21 38  1  0     0  0
 22 24  1  0     0  0
 22 29  2  0     0  0
 23 30  1  0     0  0
 25 31  2  0     0  0
 27 30  2  0     0  0
 29 31  1  0     0  0
 32 39  1  0     0  0
 33 35  1  0     0  0
 34 40  1  0     0  0
 36 40  1  0     0  0
 37 41  1  0     0  0
M  END
> <standard_type>
pIC50

> <# Confs.>
25

> <canonical_smiles>
FC1=CC(NC(CC2=CC(CC3=NC=NC4=C3C=CC(OCCCN(CCOP(O)(O)=O)CC)=C4)=NN2)=O)=CC=C1

> <standard_relation>
=

> <Publication_ID>
Wang_2009

> <predicted_activity_value>
9.455931955649724

> <actual_activity_value>
9.522878745280337

> <Compound>
1

> <standard_units>
nM

> hash
11804495725534374177

$$$$
1_
XXILIB    08252103493D 0   0.00000     0.00000

 41 44  0     1  0            999 V2000
    3.6358    4.1663   -5.0678 P   0  0  2  0  0  5           0  0  0
   -9.4263   -2.8427   12.1092 F   0  0  0  0  0  1           0  0  0
    5.0585    4.1949   -5.5482 O   0  0  0  0  0  2           0  0  0
    3.4441    3.8027   -3.5027 O   0  0  0  0  0  2           0  0  0
    2.6989    3.0942   -5.8364 O   0  0  0  0  0  2           0  0  0
    2.8384    5.5579   -5.2667 O   0  0  0  0  0  2           0  0  0
   -0.0000    0.0000    0.0000 O   0  0  0  0  0  2           0  0  0
   -7.7423   -5.1758    6.1507 O   0  0  0  0  0  2           0  0  0
   -5.1954   -3.2772    4.4872 N   0  0  0  0  0  3           0  0  0
   -4.8682   -2.0506    4.0518 N   0  0  0  0  0  3           0  0  0
    0.1114    0.0012    4.8150 N   0  0  0  0  0  3           0  0  0
   -1.9210    0.0160    6.0917 N   0  0  0  0  0  3           0  0  0
   -7.1125   -4.2207    8.1745 N   0  0  0  0  0  3           0  0  0
    4.0804    1.1716   -0.9635 N   0  0  1  0  0  3           0  0  0
   -9.4693   -3.3690   10.8772 C   0  0  0  0  0  4           0  0  0
   -0.5887   -0.0000    1.2326 C   0  0  0  0  0  4           0  0  0
   -0.5874    0.0066    5.9620 C   0  0  0  0  0  4           0  0  0
   -0.5951    0.0024    3.6753 C   0  0  0  0  0  4           0  0  0
   -5.0979   -3.4358    5.8422 C   0  0  0  0  0  4           0  0  0
   -4.5390   -1.3936    5.1726 C   0  0  0  0  0  4           0  0  0
   -2.6279    0.0161    4.9369 C   0  0  0  0  0  4           0  0  0
   -8.3262   -4.0741    8.8724 C   0  0  0  0  0  4           0  0  0
   -2.0033    0.0066    3.6694 C   0  0  0  0  0  4           0  0  0
   -8.2867   -3.5217   10.1568 C   0  0  0  0  0  4           0  0  0
  -10.6931   -3.7548   10.3410 C   0  0  0  0  0  4           0  0  0
    0.0867   -0.0000    2.4581 C   0  0  0  0  0  4           0  0  0
   -1.9800   -0.0015    1.2265 C   0  0  0  0  0  4           0  0  0
   -4.6804   -2.2139    6.3201 C   0  0  0  0  0  4           0  0  0
   -9.5562   -4.4629    8.3252 C   0  0  0  0  0  4           0  0  0
   -2.6819    0.0025    2.4298 C   0  0  0  0  0  4           0  0  0
  -10.7346   -4.3018    9.0603 C   0  0  0  0  0  4           0  0  0
   -6.8812   -4.7314    6.9090 C   0  0  0  0  0  4           0  0  0
    3.9173    2.5501   -3.0334 C   0  0  0  0  0  4           0  0  0
    1.4278   -0.0000    0.0000 C   0  0  0  0  0  4           0  0  0
    3.6256    2.4388   -1.5421 C   0  0  0  0  0  4           0  0  0
    3.4467   -0.0000   -1.5837 C   0  0  0  0  0  4           0  0  0
    5.5420    1.0239   -0.9930 C   0  0  0  0  0  4           0  0  0
   -4.1210    0.0303    5.1163 C   0  0  0  0  0  4           0  0  0
   -5.4184   -4.7121    6.5277 C   0  0  0  0  0  4           0  0  0
    1.9220    0.0000   -1.4413 C   0  0  0  0  0  4           0  0  0
    6.2375    2.1331   -0.2100 C   0  0  0  0  0  4           0  0  0
  1  3  2  0     0  0
  1  4  1  0     0  0
  1  5  1  0     0  0
  1  6  1  0     0  0
  2 15  1  0     0  0
  4 33  1  0     0  0
  7 16  1  0     0  0
  7 34  1  0     0  0
  8 32  2  0     0  0
  9 10  1  0     0  0
  9 19  1  0     0  0
 10 20  2  0     0  0
 11 17  2  0     0  0
 11 18  1  0     0  0
 12 17  1  0     0  0
 12 21  2  0     0  0
 13 22  1  0     0  0
 13 32  1  0     0  0
 14 35  1  0     0  0
 14 36  1  0     0  0
 14 37  1  0     0  0
 15 24  2  0     0  0
 15 25  1  0     0  0
 16 26  2  0     0  0
 16 27  1  0     0  0
 18 23  2  0     0  0
 18 26  1  0     0  0
 19 28  2  0     0  0
 19 39  1  0     0  0
 20 28  1  0     0  0
 20 38  1  0     0  0
 21 23  1  0     0  0
 21 38  1  0     0  0
 22 24  1  0     0  0
 22 29  2  0     0  0
 23 30  1  0     0  0
 25 31  2  0     0  0
 27 30  2  0     0  0
 29 31  1  0     0  0
 32 39  1  0     0  0
 33 35  1  0     0  0
 34 40  1  0     0  0
 36 40  1  0     0  0
 37 41  1  0     0  0
M  END
> <standard_type>
pIC50

> <# Confs.>
25

> <canonical_smiles>
FC1=CC(NC(CC2=CC(CC3=NC=NC4=C3C=CC(OCCCN(CCOP(O)(O)=O)CC)=C4)=NN2)=O)=CC=C1

> <standard_relation>
=

> <Publication_ID>
Wang_2009

> <predicted_activity_value>
9.455931955649724

> <actual_activity_value>
9.522878745280337

> <Compound>
1

> <standard_units>
nM

> hash
11804495725534374177

$$$$
1_
XXILIB    08252103493D 0   0.00000     0.00000

 41 44  0     1  0            999 V2000
   -1.9196    1.5925   -5.4604 P   0  0  2  0  0  5           0  0  0
    0.2483    5.7441   10.9095 F   0  0  0  0  0  1           0  0  0
   -2.6848    0.5430   -6.2146 O   0  0  0  0  0  2           0  0  0
   -0.3544    1.2621   -5.2165 O   0  0  0  0  0  2           0  0  0
   -2.4924    1.8915   -3.9771 O   0  0  0  0  0  2           0  0  0
   -1.9278    3.0509   -6.1567 O   0  0  0  0  0  2           0  0  0
    0.0000    0.0000    0.0000 O   0  0  0  0  0  2           0  0  0
   -3.6552    6.4198    5.6096 O   0  0  0  0  0  2           0  0  0
   -5.1127    3.3561    4.4487 N   0  0  0  0  0  3           0  0  0
   -4.8313    2.1126    4.0294 N   0  0  0  0  0  3           0  0  0
    0.1114    0.0012    4.8150 N   0  0  0  0  0  3           0  0  0
   -1.9210    0.0160    6.0917 N   0  0  0  0  0  3           0  0  0
   -3.2324    5.4228    7.6667 N   0  0  0  0  0  3           0  0  0
    1.9578   -1.1803   -3.6470 N   0  0  1  0  0  3           0  0  0
   -0.2602    6.1261    9.7296 C   0  0  0  0  0  4           0  0  0
   -0.5887    0.0000    1.2326 C   0  0  0  0  0  4           0  0  0
   -0.5874    0.0066    5.9620 C   0  0  0  0  0  4           0  0  0
   -0.5951    0.0024    3.6753 C   0  0  0  0  0  4           0  0  0
   -4.9825    3.5357    5.7983 C   0  0  0  0  0  4           0  0  0
   -4.5136    1.4619    5.1573 C   0  0  0  0  0  4           0  0  0
   -2.6279    0.0161    4.9369 C   0  0  0  0  0  4           0  0  0
   -2.0057    5.9836    8.0695 C   0  0  0  0  0  4           0  0  0
   -2.0033    0.0066    3.6694 C   0  0  0  0  0  4           0  0  0
   -1.4693    5.5851    9.2983 C   0  0  0  0  0  4           0  0  0
    0.4274    7.0567    8.9579 C   0  0  0  0  0  4           0  0  0
    0.0867    0.0000    2.4581 C   0  0  0  0  0  4           0  0  0
   -1.9800   -0.0015    1.2265 C   0  0  0  0  0  4           0  0  0
   -4.5799    2.3137    6.2885 C   0  0  0  0  0  4           0  0  0
   -1.3170    6.9192    7.2860 C   0  0  0  0  0  4           0  0  0
   -2.6819    0.0025    2.4298 C   0  0  0  0  0  4           0  0  0
   -0.1037    7.4519    7.7320 C   0  0  0  0  0  4           0  0  0
   -3.9656    5.6453    6.5139 C   0  0  0  0  0  4           0  0  0
   -0.0123    0.0949   -4.4858 C   0  0  0  0  0  4           0  0  0
    1.4278    0.0000    0.0000 C   0  0  0  0  0  4           0  0  0
    1.5053   -0.0003   -4.3886 C   0  0  0  0  0  4           0  0  0
    1.4657   -1.2091   -2.2629 C   0  0  0  0  0  4           0  0  0
    1.6230   -2.4411   -4.3233 C   0  0  0  0  0  4           0  0  0
   -4.1210    0.0303    5.1163 C   0  0  0  0  0  4           0  0  0
   -5.2413    4.8356    6.4653 C   0  0  0  0  0  4           0  0  0
    1.9220    0.0000   -1.4413 C   0  0  0  0  0  4           0  0  0
    2.2605   -2.5267   -5.7064 C   0  0  0  0  0  4           0  0  0
  1  3  2  0     0  0
  1  4  1  0     0  0
  1  5  1  0     0  0
  1  6  1  0     0  0
  2 15  1  0     0  0
  4 33  1  0     0  0
  7 16  1  0     0  0
  7 34  1  0     0  0
  8 32  2  0     0  0
  9 10  1  0     0  0
  9 19  1  0     0  0
 10 20  2  0     0  0
 11 17  2  0     0  0
 11 18  1  0     0  0
 12 17  1  0     0  0
 12 21  2  0     0  0
 13 22  1  0     0  0
 13 32  1  0     0  0
 14 35  1  0     0  0
 14 36  1  0     0  0
 14 37  1  0     0  0
 15 24  2  0     0  0
 15 25  1  0     0  0
 16 26  2  0     0  0
 16 27  1  0     0  0
 18 23  2  0     0  0
 18 26  1  0     0  0
 19 28  2  0     0  0
 19 39  1  0     0  0
 20 28  1  0     0  0
 20 38  1  0     0  0
 21 23  1  0     0  0
 21 38  1  0     0  0
 22 24  1  0     0  0
 22 29  2  0     0  0
 23 30  1  0     0  0
 25 31  2  0     0  0
 27 30  2  0     0  0
 29 31  1  0     0  0
 32 39  1  0     0  0
 33 35  1  0     0  0
 34 40  1  0     0  0
 36 40  1  0     0  0
 37 41  1  0     0  0
M  END
> <standard_type>
pIC50

> <# Confs.>
25

> <canonical_smiles>
FC1=CC(NC(CC2=CC(CC3=NC=NC4=C3C=CC(OCCCN(CCOP(O)(O)=O)CC)=C4)=NN2)=O)=CC=C1

> <standard_relation>
=

> <Publication_ID>
Wang_2009

> <predicted_activity_value>
9.455931955649724

> <actual_activity_value>
9.522878745280337

> <Compound>
1

> <standard_units>
nM

> hash
11804495725534374177

$$$$
1_
XXILIB    08252103493D 0   0.00000     0.00000

 41 44  0     1  0            999 V2000
    4.4437   -6.2519   -0.8871 P   0  0  2  0  0  5           0  0  0
   -9.4263   -2.8427   12.1092 F   0  0  0  0  0  1           0  0  0
    5.9297   -6.4269   -1.0174 O   0  0  0  0  0  2           0  0  0
    3.8657   -4.8418   -1.4312 O   0  0  0  0  0  2           0  0  0
    3.8977   -6.3383    0.6335 O   0  0  0  0  0  2           0  0  0
    3.5717   -7.3763   -1.6534 O   0  0  0  0  0  2           0  0  0
   -0.0000    0.0000    0.0000 O   0  0  0  0  0  2           0  0  0
   -7.7423   -5.1758    6.1507 O   0  0  0  0  0  2           0  0  0
   -5.1954   -3.2772    4.4872 N   0  0  0  0  0  3           0  0  0
   -4.8682   -2.0506    4.0518 N   0  0  0  0  0  3           0  0  0
    0.1114    0.0012    4.8150 N   0  0  0  0  0  3           0  0  0
   -1.9210    0.0160    6.0917 N   0  0  0  0  0  3           0  0  0
   -7.1125   -4.2207    8.1745 N   0  0  0  0  0  3           0  0  0
    4.0771   -1.1656   -0.9667 N   0  0  1  0  0  3           0  0  0
   -9.4693   -3.3690   10.8772 C   0  0  0  0  0  4           0  0  0
   -0.5887   -0.0000    1.2326 C   0  0  0  0  0  4           0  0  0
   -0.5874    0.0066    5.9620 C   0  0  0  0  0  4           0  0  0
   -0.5951    0.0024    3.6753 C   0  0  0  0  0  4           0  0  0
   -5.0979   -3.4358    5.8422 C   0  0  0  0  0  4           0  0  0
   -4.5390   -1.3936    5.1726 C   0  0  0  0  0  4           0  0  0
   -2.6279    0.0161    4.9369 C   0  0  0  0  0  4           0  0  0
   -8.3262   -4.0741    8.8724 C   0  0  0  0  0  4           0  0  0
   -2.0033    0.0066    3.6694 C   0  0  0  0  0  4           0  0  0
   -8.2867   -3.5217   10.1568 C   0  0  0  0  0  4           0  0  0
  -10.6931   -3.7548   10.3410 C   0  0  0  0  0  4           0  0  0
    0.0867   -0.0000    2.4581 C   0  0  0  0  0  4           0  0  0
   -1.9800   -0.0015    1.2265 C   0  0  0  0  0  4           0  0  0
   -4.6804   -2.2139    6.3201 C   0  0  0  0  0  4           0  0  0
   -9.5562   -4.4629    8.3252 C   0  0  0  0  0  4           0  0  0
   -2.6819    0.0025    2.4298 C   0  0  0  0  0  4           0  0  0
  -10.7346   -4.3018    9.0603 C   0  0  0  0  0  4           0  0  0
   -6.8812   -4.7314    6.9090 C   0  0  0  0  0  4           0  0  0
    4.3362   -3.6411   -0.8396 C   0  0  0  0  0  4           0  0  0
    1.4278    0.0000    0.0000 C   0  0  0  0  0  4           0  0  0
    3.6530   -2.4574   -1.5132 C   0  0  0  0  0  4           0  0  0
    3.4467   -0.0000   -1.5837 C   0  0  0  0  0  4           0  0  0
    5.5145   -1.0370   -0.7352 C   0  0  0  0  0  4           0  0  0
   -4.1210    0.0303    5.1163 C   0  0  0  0  0  4           0  0  0
   -5.4184   -4.7121    6.5277 C   0  0  0  0  0  4           0  0  0
    1.9220    0.0000   -1.4413 C   0  0  0  0  0  4           0  0  0
    6.3120   -1.2128   -2.0236 C   0  0  0  0  0  4           0  0  0
  1  3  2  0     0  0
  1  4  1  0     0  0
  1  5  1  0     0  0
  1  6  1  0     0  0
  2 15  1  0     0  0
  4 33  1  0     0  0
  7 16  1  0     0  0
  7 34  1  0     0  0
  8 32  2  0     0  0
  9 10  1  0     0  0
  9 19  1  0     0  0
 10 20  2  0     0  0
 11 17  2  0     0  0
 11 18  1  0     0  0
 12 17  1  0     0  0
 12 21  2  0     0  0
 13 22  1  0     0  0
 13 32  1  0     0  0
 14 35  1  0     0  0
 14 36  1  0     0  0
 14 37  1  0     0  0
 15 24  2  0     0  0
 15 25  1  0     0  0
 16 26  2  0     0  0
 16 27  1  0     0  0
 18 23  2  0     0  0
 18 26  1  0     0  0
 19 28  2  0     0  0
 19 39  1  0     0  0
 20 28  1  0     0  0
 20 38  1  0     0  0
 21 23  1  0     0  0
 21 38  1  0     0  0
 22 24  1  0     0  0
 22 29  2  0     0  0
 23 30  1  0     0  0
 25 31  2  0     0  0
 27 30  2  0     0  0
 29 31  1  0     0  0
 32 39  1  0     0  0
 33 35  1  0     0  0
 34 40  1  0     0  0
 36 40  1  0     0  0
 37 41  1  0     0  0
M  END
> <standard_type>
pIC50

> <# Confs.>
25

> <canonical_smiles>
FC1=CC(NC(CC2=CC(CC3=NC=NC4=C3C=CC(OCCCN(CCOP(O)(O)=O)CC)=C4)=NN2)=O)=CC=C1

> <standard_relation>
=

> <Publication_ID>
Wang_2009

> <predicted_activity_value>
9.455931955649724

> <actual_activity_value>
9.522878745280337

> <Compound>
1

> <standard_units>
nM

> hash
11804495725534374177

$$$$
1_
XXILIB    08252103493D 0   0.00000     0.00000

 41 44  0     1  0            999 V2000
    3.6358    4.1663   -5.0678 P   0  0  2  0  0  5           0  0  0
    0.2483    5.7441   10.9095 F   0  0  0  0  0  1           0  0  0
    5.0585    4.1949   -5.5482 O   0  0  0  0  0  2           0  0  0
    3.4441    3.8027   -3.5027 O   0  0  0  0  0  2           0  0  0
    2.6989    3.0942   -5.8364 O   0  0  0  0  0  2           0  0  0
    2.8384    5.5579   -5.2667 O   0  0  0  0  0  2           0  0  0
    0.0000    0.0000    0.0000 O   0  0  0  0  0  2           0  0  0
   -3.6552    6.4198    5.6096 O   0  0  0  0  0  2           0  0  0
   -5.1127    3.3561    4.4487 N   0  0  0  0  0  3           0  0  0
   -4.8313    2.1126    4.0294 N   0  0  0  0  0  3           0  0  0
    0.1114    0.0012    4.8150 N   0  0  0  0  0  3           0  0  0
   -1.9210    0.0160    6.0917 N   0  0  0  0  0  3           0  0  0
   -3.2324    5.4228    7.6667 N   0  0  0  0  0  3           0  0  0
    4.0804    1.1716   -0.9635 N   0  0  1  0  0  3           0  0  0
   -0.2602    6.1261    9.7296 C   0  0  0  0  0  4           0  0  0
   -0.5887    0.0000    1.2326 C   0  0  0  0  0  4           0  0  0
   -0.5874    0.0066    5.9620 C   0  0  0  0  0  4           0  0  0
   -0.5951    0.0024    3.6753 C   0  0  0  0  0  4           0  0  0
   -4.9825    3.5357    5.7983 C   0  0  0  0  0  4           0  0  0
   -4.5136    1.4619    5.1573 C   0  0  0  0  0  4           0  0  0
   -2.6279    0.0161    4.9369 C   0  0  0  0  0  4           0  0  0
   -2.0057    5.9836    8.0695 C   0  0  0  0  0  4           0  0  0
   -2.0033    0.0066    3.6694 C   0  0  0  0  0  4           0  0  0
   -1.4693    5.5851    9.2983 C   0  0  0  0  0  4           0  0  0
    0.4274    7.0567    8.9579 C   0  0  0  0  0  4           0  0  0
    0.0867    0.0000    2.4581 C   0  0  0  0  0  4           0  0  0
   -1.9800   -0.0015    1.2265 C   0  0  0  0  0  4           0  0  0
   -4.5799    2.3137    6.2885 C   0  0  0  0  0  4           0  0  0
   -1.3170    6.9192    7.2860 C   0  0  0  0  0  4           0  0  0
   -2.6819    0.0025    2.4298 C   0  0  0  0  0  4           0  0  0
   -0.1037    7.4519    7.7320 C   0  0  0  0  0  4           0  0  0
   -3.9656    5.6453    6.5139 C   0  0  0  0  0  4           0  0  0
    3.9173    2.5501   -3.0334 C   0  0  0  0  0  4           0  0  0
    1.4278   -0.0000    0.0000 C   0  0  0  0  0  4           0  0  0
    3.6256    2.4388   -1.5421 C   0  0  0  0  0  4           0  0  0
    3.4467   -0.0000   -1.5837 C   0  0  0  0  0  4           0  0  0
    5.5420    1.0239   -0.9930 C   0  0  0  0  0  4           0  0  0
   -4.1210    0.0303    5.1163 C   0  0  0  0  0  4           0  0  0
   -5.2413    4.8356    6.4653 C   0  0  0  0  0  4           0  0  0
    1.9220    0.0000   -1.4413 C   0  0  0  0  0  4           0  0  0
    6.2375    2.1331   -0.2100 C   0  0  0  0  0  4           0  0  0
  1  3  2  0     0  0
  1  4  1  0     0  0
  1  5  1  0     0  0
  1  6  1  0     0  0
  2 15  1  0     0  0
  4 33  1  0     0  0
  7 16  1  0     0  0
  7 34  1  0     0  0
  8 32  2  0     0  0
  9 10  1  0     0  0
  9 19  1  0     0  0
 10 20  2  0     0  0
 11 17  2  0     0  0
 11 18  1  0     0  0
 12 17  1  0     0  0
 12 21  2  0     0  0
 13 22  1  0     0  0
 13 32  1  0     0  0
 14 35  1  0     0  0
 14 36  1  0     0  0
 14 37  1  0     0  0
 15 24  2  0     0  0
 15 25  1  0     0  0
 16 26  2  0     0  0
 16 27  1  0     0  0
 18 23  2  0     0  0
 18 26  1  0     0  0
 19 28  2  0     0  0
 19 39  1  0     0  0
 20 28  1  0     0  0
 20 38  1  0     0  0
 21 23  1  0     0  0
 21 38  1  0     0  0
 22 24  1  0     0  0
 22 29  2  0     0  0
 23 30  1  0     0  0
 25 31  2  0     0  0
 27 30  2  0     0  0
 29 31  1  0     0  0
 32 39  1  0     0  0
 33 35  1  0     0  0
 34 40  1  0     0  0
 36 40  1  0     0  0
 37 41  1  0     0  0
M  END
> <standard_type>
pIC50

> <# Confs.>
25

> <canonical_smiles>
FC1=CC(NC(CC2=CC(CC3=NC=NC4=C3C=CC(OCCCN(CCOP(O)(O)=O)CC)=C4)=NN2)=O)=CC=C1

> <standard_relation>
=

> <Publication_ID>
Wang_2009

> <predicted_activity_value>
9.455931955649724

> <actual_activity_value>
9.522878745280337

> <Compound>
1

> <standard_units>
nM

> hash
11804495725534374177

$$$$
1_
XXILIB    08252103493D 0   0.00000     0.00000

 41 44  0     1  0            999 V2000
    4.4437   -6.2519   -0.8871 P   0  0  2  0  0  5           0  0  0
    0.2483    5.7441   10.9095 F   0  0  0  0  0  1           0  0  0
    5.9297   -6.4269   -1.0174 O   0  0  0  0  0  2           0  0  0
    3.8657   -4.8418   -1.4312 O   0  0  0  0  0  2           0  0  0
    3.8977   -6.3383    0.6335 O   0  0  0  0  0  2           0  0  0
    3.5717   -7.3763   -1.6534 O   0  0  0  0  0  2           0  0  0
    0.0000    0.0000    0.0000 O   0  0  0  0  0  2           0  0  0
   -3.6552    6.4198    5.6096 O   0  0  0  0  0  2           0  0  0
   -5.1127    3.3561    4.4487 N   0  0  0  0  0  3           0  0  0
   -4.8313    2.1126    4.0294 N   0  0  0  0  0  3           0  0  0
    0.1114    0.0012    4.8150 N   0  0  0  0  0  3           0  0  0
   -1.9210    0.0160    6.0917 N   0  0  0  0  0  3           0  0  0
   -3.2324    5.4228    7.6667 N   0  0  0  0  0  3           0  0  0
    4.0771   -1.1656   -0.9667 N   0  0  1  0  0  3           0  0  0
   -0.2602    6.1261    9.7296 C   0  0  0  0  0  4           0  0  0
   -0.5887    0.0000    1.2326 C   0  0  0  0  0  4           0  0  0
   -0.5874    0.0066    5.9620 C   0  0  0  0  0  4           0  0  0
   -0.5951    0.0024    3.6753 C   0  0  0  0  0  4           0  0  0
   -4.9825    3.5357    5.7983 C   0  0  0  0  0  4           0  0  0
   -4.5136    1.4619    5.1573 C   0  0  0  0  0  4           0  0  0
   -2.6279    0.0161    4.9369 C   0  0  0  0  0  4           0  0  0
   -2.0057    5.9836    8.0695 C   0  0  0  0  0  4           0  0  0
   -2.0033    0.0066    3.6694 C   0  0  0  0  0  4           0  0  0
   -1.4693    5.5851    9.2983 C   0  0  0  0  0  4           0  0  0
    0.4274    7.0567    8.9579 C   0  0  0  0  0  4           0  0  0
    0.0867    0.0000    2.4581 C   0  0  0  0  0  4           0  0  0
   -1.9800   -0.0015    1.2265 C   0  0  0  0  0  4           0  0  0
   -4.5799    2.3137    6.2885 C   0  0  0  0  0  4           0  0  0
   -1.3170    6.9192    7.2860 C   0  0  0  0  0  4           0  0  0
   -2.6819    0.0025    2.4298 C   0  0  0  0  0  4           0  0  0
   -0.1037    7.4519    7.7320 C   0  0  0  0  0  4           0  0  0
   -3.9656    5.6453    6.5139 C   0  0  0  0  0  4           0  0  0
    4.3362   -3.6411   -0.8396 C   0  0  0  0  0  4           0  0  0
    1.4278    0.0000    0.0000 C   0  0  0  0  0  4           0  0  0
    3.6530   -2.4574   -1.5132 C   0  0  0  0  0  4           0  0  0
    3.4467   -0.0000   -1.5837 C   0  0  0  0  0  4           0  0  0
    5.5145   -1.0370   -0.7352 C   0  0  0  0  0  4           0  0  0
   -4.1210    0.0303    5.1163 C   0  0  0  0  0  4           0  0  0
   -5.2413    4.8356    6.4653 C   0  0  0  0  0  4           0  0  0
    1.9220    0.0000   -1.4413 C   0  0  0  0  0  4           0  0  0
    6.3120   -1.2128   -2.0236 C   0  0  0  0  0  4           0  0  0
  1  3  2  0     0  0
  1  4  1  0     0  0
  1  5  1  0     0  0
  1  6  1  0     0  0
  2 15  1  0     0  0
  4 33  1  0     0  0
  7 16  1  0     0  0
  7 34  1  0     0  0
  8 32  2  0     0  0
  9 10  1  0     0  0
  9 19  1  0     0  0
 10 20  2  0     0  0
 11 17  2  0     0  0
 11 18  1  0     0  0
 12 17  1  0     0  0
 12 21  2  0     0  0
 13 22  1  0     0  0
 13 32  1  0     0  0
 14 35  1  0     0  0
 14 36  1  0     0  0
 14 37  1  0     0  0
 15 24  2  0     0  0
 15 25  1  0     0  0
 16 26  2  0     0  0
 16 27  1  0     0  0
 18 23  2  0     0  0
 18 26  1  0     0  0
 19 28  2  0     0  0
 19 39  1  0     0  0
 20 28  1  0     0  0
 20 38  1  0     0  0
 21 23  1  0     0  0
 21 38  1  0     0  0
 22 24  1  0     0  0
 22 29  2  0     0  0
 23 30  1  0     0  0
 25 31  2  0     0  0
 27 30  2  0     0  0
 29 31  1  0     0  0
 32 39  1  0     0  0
 33 35  1  0     0  0
 34 40  1  0     0  0
 36 40  1  0     0  0
 37 41  1  0     0  0
M  END
> <standard_type>
pIC50

> <# Confs.>
25

> <canonical_smiles>
FC1=CC(NC(CC2=CC(CC3=NC=NC4=C3C=CC(OCCCN(CCOP(O)(O)=O)CC)=C4)=NN2)=O)=CC=C1

> <standard_relation>
=

> <Publication_ID>
Wang_2009

> <predicted_activity_value>
9.455931955649724

> <actual_activity_value>
9.522878745280337

> <Compound>
1

> <standard_units>
nM

> hash
11804495725534374177

$$$$
1_
XXILIB    08252103493D 0   0.00000     0.00000

 41 44  0     1  0            999 V2000
    3.7816   -5.0722   -3.5056 P   0  0  2  0  0  5           0  0  0
    0.0199   -5.6419   11.0302 F   0  0  0  0  0  1           0  0  0
    5.2503   -5.3861   -3.4938 O   0  0  0  0  0  2           0  0  0
    3.4044   -3.5562   -3.9277 O   0  0  0  0  0  2           0  0  0
    3.0500   -5.2743   -2.0767 O   0  0  0  0  0  2           0  0  0
    2.9102   -6.0037   -4.4979 O   0  0  0  0  0  2           0  0  0
   -0.0000    0.0000    0.0000 O   0  0  0  0  0  2           0  0  0
   -3.8773   -6.3708    5.7328 O   0  0  0  0  0  2           0  0  0
   -5.1954   -3.2772    4.4872 N   0  0  0  0  0  3           0  0  0
   -4.8682   -2.0506    4.0518 N   0  0  0  0  0  3           0  0  0
    0.1114    0.0012    4.8150 N   0  0  0  0  0  3           0  0  0
   -1.9210    0.0160    6.0917 N   0  0  0  0  0  3           0  0  0
   -3.4400   -5.3288    7.7644 N   0  0  0  0  0  3           0  0  0
    3.8917    0.0000   -2.9840 N   0  0  1  0  0  3           0  0  0
   -0.5009   -6.0553    9.8664 C   0  0  0  0  0  4           0  0  0
   -0.5887   -0.0000    1.2326 C   0  0  0  0  0  4           0  0  0
   -0.5874    0.0066    5.9620 C   0  0  0  0  0  4           0  0  0
   -0.5951    0.0024    3.6753 C   0  0  0  0  0  4           0  0  0
   -5.0979   -3.4358    5.8422 C   0  0  0  0  0  4           0  0  0
   -4.5390   -1.3936    5.1726 C   0  0  0  0  0  4           0  0  0
   -2.6279    0.0161    4.9369 C   0  0  0  0  0  4           0  0  0
   -2.2381   -5.9204    8.1970 C   0  0  0  0  0  4           0  0  0
   -2.0033    0.0066    3.6694 C   0  0  0  0  0  4           0  0  0
   -1.6929   -5.4949    9.4128 C   0  0  0  0  0  4           0  0  0
    0.1587   -7.0349    9.1319 C   0  0  0  0  0  4           0  0  0
    0.0867   -0.0000    2.4581 C   0  0  0  0  0  4           0  0  0
   -1.9800   -0.0015    1.2265 C   0  0  0  0  0  4           0  0  0
   -4.6804   -2.2139    6.3201 C   0  0  0  0  0  4           0  0  0
   -1.5797   -6.9086    7.4529 C   0  0  0  0  0  4           0  0  0
   -2.6819    0.0025    2.4298 C   0  0  0  0  0  4           0  0  0
   -0.3849   -7.4624    7.9224 C   0  0  0  0  0  4           0  0  0
   -4.1753   -5.5680    6.6164 C   0  0  0  0  0  4           0  0  0
    3.9072   -2.4872   -3.1418 C   0  0  0  0  0  4           0  0  0
    1.4278   -0.0000    0.0000 C   0  0  0  0  0  4           0  0  0
    3.4211   -1.1691   -3.7317 C   0  0  0  0  0  4           0  0  0
    3.4467    0.0000   -1.5837 C   0  0  0  0  0  4           0  0  0
    5.3504    0.1661   -3.0452 C   0  0  0  0  0  4           0  0  0
   -4.1210    0.0303    5.1163 C   0  0  0  0  0  4           0  0  0
   -5.4184   -4.7121    6.5277 C   0  0  0  0  0  4           0  0  0
    1.9220    0.0000   -1.4413 C   0  0  0  0  0  4           0  0  0
    5.8388    0.3426   -4.4795 C   0  0  0  0  0  4           0  0  0
  1  3  2  0     0  0
  1  4  1  0     0  0
  1  5  1  0     0  0
  1  6  1  0     0  0
  2 15  1  0     0  0
  4 33  1  0     0  0
  7 16  1  0     0  0
  7 34  1  0     0  0
  8 32  2  0     0  0
  9 10  1  0     0  0
  9 19  1  0     0  0
 10 20  2  0     0  0
 11 17  2  0     0  0
 11 18  1  0     0  0
 12 17  1  0     0  0
 12 21  2  0     0  0
 13 22  1  0     0  0
 13 32  1  0     0  0
 14 35  1  0     0  0
 14 36  1  0     0  0
 14 37  1  0     0  0
 15 24  2  0     0  0
 15 25  1  0     0  0
 16 26  2  0     0  0
 16 27  1  0     0  0
 18 23  2  0     0  0
 18 26  1  0     0  0
 19 28  2  0     0  0
 19 39  1  0     0  0
 20 28  1  0     0  0
 20 38  1  0     0  0
 21 23  1  0     0  0
 21 38  1  0     0  0
 22 24  1  0     0  0
 22 29  2  0     0  0
 23 30  1  0     0  0
 25 31  2  0     0  0
 27 30  2  0     0  0
 29 31  1  0     0  0
 32 39  1  0     0  0
 33 35  1  0     0  0
 34 40  1  0     0  0
 36 40  1  0     0  0
 37 41  1  0     0  0
M  END
> <standard_type>
pIC50

> <# Confs.>
25

> <canonical_smiles>
FC1=CC(NC(CC2=CC(CC3=NC=NC4=C3C=CC(OCCCN(CCOP(O)(O)=O)CC)=C4)=NN2)=O)=CC=C1

> <standard_relation>
=

> <Publication_ID>
Wang_2009

> <predicted_activity_value>
9.455931955649724

> <actual_activity_value>
9.522878745280337

> <Compound>
1

> <standard_units>
nM

> hash
11804495725534374177

$$$$
1_
XXILIB    08252103493D 0   0.00000     0.00000

 41 44  0     1  0            999 V2000
    2.0321   -1.3472   -8.0689 P   0  0  2  0  0  5           0  0  0
    0.0199   -5.6419   11.0302 F   0  0  0  0  0  1           0  0  0
    1.5983   -0.2651   -9.0157 O   0  0  0  0  0  2           0  0  0
    1.5993   -1.1266   -6.5254 O   0  0  0  0  0  2           0  0  0
    3.6341   -1.5630   -7.9994 O   0  0  0  0  0  2           0  0  0
    1.4805   -2.8194   -8.4436 O   0  0  0  0  0  2           0  0  0
   -0.0000    0.0000    0.0000 O   0  0  0  0  0  2           0  0  0
   -3.8773   -6.3708    5.7328 O   0  0  0  0  0  2           0  0  0
   -5.1954   -3.2772    4.4872 N   0  0  0  0  0  3           0  0  0
   -4.8682   -2.0506    4.0518 N   0  0  0  0  0  3           0  0  0
    0.1114    0.0012    4.8150 N   0  0  0  0  0  3           0  0  0
   -1.9210    0.0160    6.0917 N   0  0  0  0  0  3           0  0  0
   -3.4400   -5.3288    7.7644 N   0  0  0  0  0  3           0  0  0
    1.9553    1.1805   -3.6399 N   0  0  1  0  0  3           0  0  0
   -0.5009   -6.0553    9.8664 C   0  0  0  0  0  4           0  0  0
   -0.5887   -0.0000    1.2326 C   0  0  0  0  0  4           0  0  0
   -0.5874    0.0066    5.9620 C   0  0  0  0  0  4           0  0  0
   -0.5951    0.0024    3.6753 C   0  0  0  0  0  4           0  0  0
   -5.0979   -3.4358    5.8422 C   0  0  0  0  0  4           0  0  0
   -4.5390   -1.3936    5.1726 C   0  0  0  0  0  4           0  0  0
   -2.6279    0.0161    4.9369 C   0  0  0  0  0  4           0  0  0
   -2.2381   -5.9204    8.1970 C   0  0  0  0  0  4           0  0  0
   -2.0033    0.0066    3.6694 C   0  0  0  0  0  4           0  0  0
   -1.6929   -5.4949    9.4128 C   0  0  0  0  0  4           0  0  0
    0.1587   -7.0349    9.1319 C   0  0  0  0  0  4           0  0  0
    0.0867   -0.0000    2.4581 C   0  0  0  0  0  4           0  0  0
   -1.9800   -0.0015    1.2265 C   0  0  0  0  0  4           0  0  0
   -4.6804   -2.2139    6.3201 C   0  0  0  0  0  4           0  0  0
   -1.5797   -6.9086    7.4529 C   0  0  0  0  0  4           0  0  0
   -2.6819    0.0025    2.4298 C   0  0  0  0  0  4           0  0  0
   -0.3849   -7.4624    7.9224 C   0  0  0  0  0  4           0  0  0
   -4.1753   -5.5680    6.6164 C   0  0  0  0  0  4           0  0  0
    2.0624    0.0315   -5.8490 C   0  0  0  0  0  4           0  0  0
    1.4278    0.0000    0.0000 C   0  0  0  0  0  4           0  0  0
    1.5281    0.0173   -4.4221 C   0  0  0  0  0  4           0  0  0
    1.4657    1.2091   -2.2629 C   0  0  0  0  0  4           0  0  0
    1.8810    2.4581   -4.3458 C   0  0  0  0  0  4           0  0  0
   -4.1210    0.0303    5.1163 C   0  0  0  0  0  4           0  0  0
   -5.4184   -4.7121    6.5277 C   0  0  0  0  0  4           0  0  0
    1.9220    0.0000   -1.4413 C   0  0  0  0  0  4           0  0  0
    0.4577    2.7731   -4.7951 C   0  0  0  0  0  4           0  0  0
  1  3  2  0     0  0
  1  4  1  0     0  0
  1  5  1  0     0  0
  1  6  1  0     0  0
  2 15  1  0     0  0
  4 33  1  0     0  0
  7 16  1  0     0  0
  7 34  1  0     0  0
  8 32  2  0     0  0
  9 10  1  0     0  0
  9 19  1  0     0  0
 10 20  2  0     0  0
 11 17  2  0     0  0
 11 18  1  0     0  0
 12 17  1  0     0  0
 12 21  2  0     0  0
 13 22  1  0     0  0
 13 32  1  0     0  0
 14 35  1  0     0  0
 14 36  1  0     0  0
 14 37  1  0     0  0
 15 24  2  0     0  0
 15 25  1  0     0  0
 16 26  2  0     0  0
 16 27  1  0     0  0
 18 23  2  0     0  0
 18 26  1  0     0  0
 19 28  2  0     0  0
 19 39  1  0     0  0
 20 28  1  0     0  0
 20 38  1  0     0  0
 21 23  1  0     0  0
 21 38  1  0     0  0
 22 24  1  0     0  0
 22 29  2  0     0  0
 23 30  1  0     0  0
 25 31  2  0     0  0
 27 30  2  0     0  0
 29 31  1  0     0  0
 32 39  1  0     0  0
 33 35  1  0     0  0
 34 40  1  0     0  0
 36 40  1  0     0  0
 37 41  1  0     0  0
M  END
> <standard_type>
pIC50

> <# Confs.>
25

> <canonical_smiles>
FC1=CC(NC(CC2=CC(CC3=NC=NC4=C3C=CC(OCCCN(CCOP(O)(O)=O)CC)=C4)=NN2)=O)=CC=C1

> <standard_relation>
=

> <Publication_ID>
Wang_2009

> <predicted_activity_value>
9.455931955649724

> <actual_activity_value>
9.522878745280337

> <Compound>
1

> <standard_units>
nM

> hash
11804495725534374177

$$$$
1_
XXILIB    08252103493D 0   0.00000     0.00000

 41 44  0     1  0            999 V2000
    2.0321   -1.3472   -8.0689 P   0  0  2  0  0  5           0  0  0
   -9.2273    3.0951   12.1040 F   0  0  0  0  0  1           0  0  0
    1.5983   -0.2651   -9.0157 O   0  0  0  0  0  2           0  0  0
    1.5993   -1.1266   -6.5254 O   0  0  0  0  0  2           0  0  0
    3.6341   -1.5630   -7.9994 O   0  0  0  0  0  2           0  0  0
    1.4805   -2.8194   -8.4436 O   0  0  0  0  0  2           0  0  0
    0.0000    0.0000    0.0000 O   0  0  0  0  0  2           0  0  0
   -7.5532    5.3798    6.1240 O   0  0  0  0  0  2           0  0  0
   -5.1127    3.3561    4.4487 N   0  0  0  0  0  3           0  0  0
   -4.8313    2.1126    4.0294 N   0  0  0  0  0  3           0  0  0
    0.1114    0.0012    4.8150 N   0  0  0  0  0  3           0  0  0
   -1.9210    0.0160    6.0917 N   0  0  0  0  0  3           0  0  0
   -6.9247    4.4104    8.1413 N   0  0  0  0  0  3           0  0  0
    1.9553    1.1805   -3.6399 N   0  0  1  0  0  3           0  0  0
   -9.2685    3.6364   10.8785 C   0  0  0  0  0  4           0  0  0
   -0.5887    0.0000    1.2326 C   0  0  0  0  0  4           0  0  0
   -0.5874    0.0066    5.9620 C   0  0  0  0  0  4           0  0  0
   -0.5951    0.0024    3.6753 C   0  0  0  0  0  4           0  0  0
   -4.9825    3.5357    5.7983 C   0  0  0  0  0  4           0  0  0
   -4.5136    1.4619    5.1573 C   0  0  0  0  0  4           0  0  0
   -2.6279    0.0161    4.9369 C   0  0  0  0  0  4           0  0  0
   -8.1306    4.3135    8.8612 C   0  0  0  0  0  4           0  0  0
   -2.0033    0.0066    3.6694 C   0  0  0  0  0  4           0  0  0
   -8.0918    3.7530   10.1420 C   0  0  0  0  0  4           0  0  0
  -10.4854    4.0702   10.3634 C   0  0  0  0  0  4           0  0  0
    0.0867    0.0000    2.4581 C   0  0  0  0  0  4           0  0  0
   -1.9800   -0.0015    1.2265 C   0  0  0  0  0  4           0  0  0
   -4.5799    2.3137    6.2885 C   0  0  0  0  0  4           0  0  0
   -9.3530    4.7547    8.3370 C   0  0  0  0  0  4           0  0  0
   -2.6819    0.0025    2.4298 C   0  0  0  0  0  4           0  0  0
  -10.5252    4.6321    9.0891 C   0  0  0  0  0  4           0  0  0
   -6.6945    4.9172    6.8741 C   0  0  0  0  0  4           0  0  0
    2.0624    0.0315   -5.8490 C   0  0  0  0  0  4           0  0  0
    1.4278    0.0000    0.0000 C   0  0  0  0  0  4           0  0  0
    1.5281    0.0173   -4.4221 C   0  0  0  0  0  4           0  0  0
    1.4657    1.2091   -2.2629 C   0  0  0  0  0  4           0  0  0
    1.8810    2.4581   -4.3458 C   0  0  0  0  0  4           0  0  0
   -4.1210    0.0303    5.1163 C   0  0  0  0  0  4           0  0  0
   -5.2413    4.8356    6.4653 C   0  0  0  0  0  4           0  0  0
    1.9220    0.0000   -1.4413 C   0  0  0  0  0  4           0  0  0
    0.4577    2.7731   -4.7951 C   0  0  0  0  0  4           0  0  0
  1  3  2  0     0  0
  1  4  1  0     0  0
  1  5  1  0     0  0
  1  6  1  0     0  0
  2 15  1  0     0  0
  4 33  1  0     0  0
  7 16  1  0     0  0
  7 34  1  0     0  0
  8 32  2  0     0  0
  9 10  1  0     0  0
  9 19  1  0     0  0
 10 20  2  0     0  0
 11 17  2  0     0  0
 11 18  1  0     0  0
 12 17  1  0     0  0
 12 21  2  0     0  0
 13 22  1  0     0  0
 13 32  1  0     0  0
 14 35  1  0     0  0
 14 36  1  0     0  0
 14 37  1  0     0  0
 15 24  2  0     0  0
 15 25  1  0     0  0
 16 26  2  0     0  0
 16 27  1  0     0  0
 18 23  2  0     0  0
 18 26  1  0     0  0
 19 28  2  0     0  0
 19 39  1  0     0  0
 20 28  1  0     0  0
 20 38  1  0     0  0
 21 23  1  0     0  0
 21 38  1  0     0  0
 22 24  1  0     0  0
 22 29  2  0     0  0
 23 30  1  0     0  0
 25 31  2  0     0  0
 27 30  2  0     0  0
 29 31  1  0     0  0
 32 39  1  0     0  0
 33 35  1  0     0  0
 34 40  1  0     0  0
 36 40  1  0     0  0
 37 41  1  0     0  0
M  END
> <standard_type>
pIC50

> <# Confs.>
25

> <canonical_smiles>
FC1=CC(NC(CC2=CC(CC3=NC=NC4=C3C=CC(OCCCN(CCOP(O)(O)=O)CC)=C4)=NN2)=O)=CC=C1

> <standard_relation>
=

> <Publication_ID>
Wang_2009

> <predicted_activity_value>
9.455931955649724

> <actual_activity_value>
9.522878745280337

> <Compound>
1

> <standard_units>
nM

> hash
11804495725534374177

$$$$
1_
XXILIB    08252103493D 0   0.00000     0.00000

 41 44  0     1  0            999 V2000
    3.7816   -5.0722   -3.5056 P   0  0  2  0  0  5           0  0  0
   -9.2273    3.0951   12.1040 F   0  0  0  0  0  1           0  0  0
    5.2503   -5.3861   -3.4938 O   0  0  0  0  0  2           0  0  0
    3.4044   -3.5562   -3.9277 O   0  0  0  0  0  2           0  0  0
    3.0500   -5.2743   -2.0767 O   0  0  0  0  0  2           0  0  0
    2.9102   -6.0037   -4.4979 O   0  0  0  0  0  2           0  0  0
    0.0000    0.0000    0.0000 O   0  0  0  0  0  2           0  0  0
   -7.5532    5.3798    6.1240 O   0  0  0  0  0  2           0  0  0
   -5.1127    3.3561    4.4487 N   0  0  0  0  0  3           0  0  0
   -4.8313    2.1126    4.0294 N   0  0  0  0  0  3           0  0  0
    0.1114    0.0012    4.8150 N   0  0  0  0  0  3           0  0  0
   -1.9210    0.0160    6.0917 N   0  0  0  0  0  3           0  0  0
   -6.9247    4.4104    8.1413 N   0  0  0  0  0  3           0  0  0
    3.8917    0.0000   -2.9840 N   0  0  1  0  0  3           0  0  0
   -9.2685    3.6364   10.8785 C   0  0  0  0  0  4           0  0  0
   -0.5887    0.0000    1.2326 C   0  0  0  0  0  4           0  0  0
   -0.5874    0.0066    5.9620 C   0  0  0  0  0  4           0  0  0
   -0.5951    0.0024    3.6753 C   0  0  0  0  0  4           0  0  0
   -4.9825    3.5357    5.7983 C   0  0  0  0  0  4           0  0  0
   -4.5136    1.4619    5.1573 C   0  0  0  0  0  4           0  0  0
   -2.6279    0.0161    4.9369 C   0  0  0  0  0  4           0  0  0
   -8.1306    4.3135    8.8612 C   0  0  0  0  0  4           0  0  0
   -2.0033    0.0066    3.6694 C   0  0  0  0  0  4           0  0  0
   -8.0918    3.7530   10.1420 C   0  0  0  0  0  4           0  0  0
  -10.4854    4.0702   10.3634 C   0  0  0  0  0  4           0  0  0
    0.0867    0.0000    2.4581 C   0  0  0  0  0  4           0  0  0
   -1.9800   -0.0015    1.2265 C   0  0  0  0  0  4           0  0  0
   -4.5799    2.3137    6.2885 C   0  0  0  0  0  4           0  0  0
   -9.3530    4.7547    8.3370 C   0  0  0  0  0  4           0  0  0
   -2.6819    0.0025    2.4298 C   0  0  0  0  0  4           0  0  0
  -10.5252    4.6321    9.0891 C   0  0  0  0  0  4           0  0  0
   -6.6945    4.9172    6.8741 C   0  0  0  0  0  4           0  0  0
    3.9072   -2.4872   -3.1418 C   0  0  0  0  0  4           0  0  0
    1.4278   -0.0000    0.0000 C   0  0  0  0  0  4           0  0  0
    3.4211   -1.1691   -3.7317 C   0  0  0  0  0  4           0  0  0
    3.4467    0.0000   -1.5837 C   0  0  0  0  0  4           0  0  0
    5.3504    0.1661   -3.0452 C   0  0  0  0  0  4           0  0  0
   -4.1210    0.0303    5.1163 C   0  0  0  0  0  4           0  0  0
   -5.2413    4.8356    6.4653 C   0  0  0  0  0  4           0  0  0
    1.9220    0.0000   -1.4413 C   0  0  0  0  0  4           0  0  0
    5.8388    0.3426   -4.4795 C   0  0  0  0  0  4           0  0  0
  1  3  2  0     0  0
  1  4  1  0     0  0
  1  5  1  0     0  0
  1  6  1  0     0  0
  2 15  1  0     0  0
  4 33  1  0     0  0
  7 16  1  0     0  0
  7 34  1  0     0  0
  8 32  2  0     0  0
  9 10  1  0     0  0
  9 19  1  0     0  0
 10 20  2  0     0  0
 11 17  2  0     0  0
 11 18  1  0     0  0
 12 17  1  0     0  0
 12 21  2  0     0  0
 13 22  1  0     0  0
 13 32  1  0     0  0
 14 35  1  0     0  0
 14 36  1  0     0  0
 14 37  1  0     0  0
 15 24  2  0     0  0
 15 25  1  0     0  0
 16 26  2  0     0  0
 16 27  1  0     0  0
 18 23  2  0     0  0
 18 26  1  0     0  0
 19 28  2  0     0  0
 19 39  1  0     0  0
 20 28  1  0     0  0
 20 38  1  0     0  0
 21 23  1  0     0  0
 21 38  1  0     0  0
 22 24  1  0     0  0
 22 29  2  0     0  0
 23 30  1  0     0  0
 25 31  2  0     0  0
 27 30  2  0     0  0
 29 31  1  0     0  0
 32 39  1  0     0  0
 33 35  1  0     0  0
 34 40  1  0     0  0
 36 40  1  0     0  0
 37 41  1  0     0  0
M  END
> <standard_type>
pIC50

> <# Confs.>
25

> <canonical_smiles>
FC1=CC(NC(CC2=CC(CC3=NC=NC4=C3C=CC(OCCCN(CCOP(O)(O)=O)CC)=C4)=NN2)=O)=CC=C1

> <standard_relation>
=

> <Publication_ID>
Wang_2009

> <predicted_activity_value>
9.455931955649724

> <actual_activity_value>
9.522878745280337

> <Compound>
1

> <standard_units>
nM

> hash
11804495725534374177

$$$$
1_
XXILIB    08252103493D 0   0.00000     0.00000

 41 44  0     1  0            999 V2000
    3.7816   -5.0722   -3.5056 P   0  0  2  0  0  5           0  0  0
   -9.4263   -2.8427   12.1092 F   0  0  0  0  0  1           0  0  0
    5.2503   -5.3861   -3.4938 O   0  0  0  0  0  2           0  0  0
    3.4044   -3.5562   -3.9277 O   0  0  0  0  0  2           0  0  0
    3.0500   -5.2743   -2.0767 O   0  0  0  0  0  2           0  0  0
    2.9102   -6.0037   -4.4979 O   0  0  0  0  0  2           0  0  0
   -0.0000    0.0000    0.0000 O   0  0  0  0  0  2           0  0  0
   -7.7423   -5.1758    6.1507 O   0  0  0  0  0  2           0  0  0
   -5.1954   -3.2772    4.4872 N   0  0  0  0  0  3           0  0  0
   -4.8682   -2.0506    4.0518 N   0  0  0  0  0  3           0  0  0
    0.1114    0.0012    4.8150 N   0  0  0  0  0  3           0  0  0
   -1.9210    0.0160    6.0917 N   0  0  0  0  0  3           0  0  0
   -7.1125   -4.2207    8.1745 N   0  0  0  0  0  3           0  0  0
    3.8917    0.0000   -2.9840 N   0  0  1  0  0  3           0  0  0
   -9.4693   -3.3690   10.8772 C   0  0  0  0  0  4           0  0  0
   -0.5887   -0.0000    1.2326 C   0  0  0  0  0  4           0  0  0
   -0.5874    0.0066    5.9620 C   0  0  0  0  0  4           0  0  0
   -0.5951    0.0024    3.6753 C   0  0  0  0  0  4           0  0  0
   -5.0979   -3.4358    5.8422 C   0  0  0  0  0  4           0  0  0
   -4.5390   -1.3936    5.1726 C   0  0  0  0  0  4           0  0  0
   -2.6279    0.0161    4.9369 C   0  0  0  0  0  4           0  0  0
   -8.3262   -4.0741    8.8724 C   0  0  0  0  0  4           0  0  0
   -2.0033    0.0066    3.6694 C   0  0  0  0  0  4           0  0  0
   -8.2867   -3.5217   10.1568 C   0  0  0  0  0  4           0  0  0
  -10.6931   -3.7548   10.3410 C   0  0  0  0  0  4           0  0  0
    0.0867   -0.0000    2.4581 C   0  0  0  0  0  4           0  0  0
   -1.9800   -0.0015    1.2265 C   0  0  0  0  0  4           0  0  0
   -4.6804   -2.2139    6.3201 C   0  0  0  0  0  4           0  0  0
   -9.5562   -4.4629    8.3252 C   0  0  0  0  0  4           0  0  0
   -2.6819    0.0025    2.4298 C   0  0  0  0  0  4           0  0  0
  -10.7346   -4.3018    9.0603 C   0  0  0  0  0  4           0  0  0
   -6.8812   -4.7314    6.9090 C   0  0  0  0  0  4           0  0  0
    3.9072   -2.4872   -3.1418 C   0  0  0  0  0  4           0  0  0
    1.4278   -0.0000    0.0000 C   0  0  0  0  0  4           0  0  0
    3.4211   -1.1691   -3.7317 C   0  0  0  0  0  4           0  0  0
    3.4467    0.0000   -1.5837 C   0  0  0  0  0  4           0  0  0
    5.3504    0.1661   -3.0452 C   0  0  0  0  0  4           0  0  0
   -4.1210    0.0303    5.1163 C   0  0  0  0  0  4           0  0  0
   -5.4184   -4.7121    6.5277 C   0  0  0  0  0  4           0  0  0
    1.9220    0.0000   -1.4413 C   0  0  0  0  0  4           0  0  0
    5.8388    0.3426   -4.4795 C   0  0  0  0  0  4           0  0  0
  1  3  2  0     0  0
  1  4  1  0     0  0
  1  5  1  0     0  0
  1  6  1  0     0  0
  2 15  1  0     0  0
  4 33  1  0     0  0
  7 16  1  0     0  0
  7 34  1  0     0  0
  8 32  2  0     0  0
  9 10  1  0     0  0
  9 19  1  0     0  0
 10 20  2  0     0  0
 11 17  2  0     0  0
 11 18  1  0     0  0
 12 17  1  0     0  0
 12 21  2  0     0  0
 13 22  1  0     0  0
 13 32  1  0     0  0
 14 35  1  0     0  0
 14 36  1  0     0  0
 14 37  1  0     0  0
 15 24  2  0     0  0
 15 25  1  0     0  0
 16 26  2  0     0  0
 16 27  1  0     0  0
 18 23  2  0     0  0
 18 26  1  0     0  0
 19 28  2  0     0  0
 19 39  1  0     0  0
 20 28  1  0     0  0
 20 38  1  0     0  0
 21 23  1  0     0  0
 21 38  1  0     0  0
 22 24  1  0     0  0
 22 29  2  0     0  0
 23 30  1  0     0  0
 25 31  2  0     0  0
 27 30  2  0     0  0
 29 31  1  0     0  0
 32 39  1  0     0  0
 33 35  1  0     0  0
 34 40  1  0     0  0
 36 40  1  0     0  0
 37 41  1  0     0  0
M  END
> <standard_type>
pIC50

> <# Confs.>
25

> <canonical_smiles>
FC1=CC(NC(CC2=CC(CC3=NC=NC4=C3C=CC(OCCCN(CCOP(O)(O)=O)CC)=C4)=NN2)=O)=CC=C1

> <standard_relation>
=

> <Publication_ID>
Wang_2009

> <predicted_activity_value>
9.455931955649724

> <actual_activity_value>
9.522878745280337

> <Compound>
1

> <standard_units>
nM

> hash
11804495725534374177

$$$$
1_
XXILIB    08252103493D 0   0.00000     0.00000

 41 44  0     1  0            999 V2000
    4.6333   -4.7904    1.4888 P   0  0  2  0  0  5           0  0  0
    0.0199   -5.6419   11.0302 F   0  0  0  0  0  1           0  0  0
    4.2365   -6.1901    1.1160 O   0  0  0  0  0  2           0  0  0
    4.0233   -3.6265    0.5443 O   0  0  0  0  0  2           0  0  0
    6.2288   -4.5240    1.4573 O   0  0  0  0  0  2           0  0  0
    4.2199   -4.3593    2.9905 O   0  0  0  0  0  2           0  0  0
   -0.0000    0.0000    0.0000 O   0  0  0  0  0  2           0  0  0
   -3.8773   -6.3708    5.7328 O   0  0  0  0  0  2           0  0  0
   -5.1954   -3.2772    4.4872 N   0  0  0  0  0  3           0  0  0
   -4.8682   -2.0506    4.0518 N   0  0  0  0  0  3           0  0  0
    0.1114    0.0012    4.8150 N   0  0  0  0  0  3           0  0  0
   -1.9210    0.0160    6.0917 N   0  0  0  0  0  3           0  0  0
   -3.4400   -5.3288    7.7644 N   0  0  0  0  0  3           0  0  0
    4.0771   -1.1656   -0.9667 N   0  0  1  0  0  3           0  0  0
   -0.5009   -6.0553    9.8664 C   0  0  0  0  0  4           0  0  0
   -0.5887   -0.0000    1.2326 C   0  0  0  0  0  4           0  0  0
   -0.5874    0.0066    5.9620 C   0  0  0  0  0  4           0  0  0
   -0.5951    0.0024    3.6753 C   0  0  0  0  0  4           0  0  0
   -5.0979   -3.4358    5.8422 C   0  0  0  0  0  4           0  0  0
   -4.5390   -1.3936    5.1726 C   0  0  0  0  0  4           0  0  0
   -2.6279    0.0161    4.9369 C   0  0  0  0  0  4           0  0  0
   -2.2381   -5.9204    8.1970 C   0  0  0  0  0  4           0  0  0
   -2.0033    0.0066    3.6694 C   0  0  0  0  0  4           0  0  0
   -1.6929   -5.4949    9.4128 C   0  0  0  0  0  4           0  0  0
    0.1587   -7.0349    9.1319 C   0  0  0  0  0  4           0  0  0
    0.0867   -0.0000    2.4581 C   0  0  0  0  0  4           0  0  0
   -1.9800   -0.0015    1.2265 C   0  0  0  0  0  4           0  0  0
   -4.6804   -2.2139    6.3201 C   0  0  0  0  0  4           0  0  0
   -1.5797   -6.9086    7.4529 C   0  0  0  0  0  4           0  0  0
   -2.6819    0.0025    2.4298 C   0  0  0  0  0  4           0  0  0
   -0.3849   -7.4624    7.9224 C   0  0  0  0  0  4           0  0  0
   -4.1753   -5.5680    6.6164 C   0  0  0  0  0  4           0  0  0
    4.3362   -3.6411   -0.8396 C   0  0  0  0  0  4           0  0  0
    1.4278    0.0000    0.0000 C   0  0  0  0  0  4           0  0  0
    3.6530   -2.4574   -1.5132 C   0  0  0  0  0  4           0  0  0
    3.4467   -0.0000   -1.5837 C   0  0  0  0  0  4           0  0  0
    5.5145   -1.0370   -0.7352 C   0  0  0  0  0  4           0  0  0
   -4.1210    0.0303    5.1163 C   0  0  0  0  0  4           0  0  0
   -5.4184   -4.7121    6.5277 C   0  0  0  0  0  4           0  0  0
    1.9220    0.0000   -1.4413 C   0  0  0  0  0  4           0  0  0
    6.3120   -1.2128   -2.0236 C   0  0  0  0  0  4           0  0  0
  1  3  2  0     0  0
  1  4  1  0     0  0
  1  5  1  0     0  0
  1  6  1  0     0  0
  2 15  1  0     0  0
  4 33  1  0     0  0
  7 16  1  0     0  0
  7 34  1  0     0  0
  8 32  2  0     0  0
  9 10  1  0     0  0
  9 19  1  0     0  0
 10 20  2  0     0  0
 11 17  2  0     0  0
 11 18  1  0     0  0
 12 17  1  0     0  0
 12 21  2  0     0  0
 13 22  1  0     0  0
 13 32  1  0     0  0
 14 35  1  0     0  0
 14 36  1  0     0  0
 14 37  1  0     0  0
 15 24  2  0     0  0
 15 25  1  0     0  0
 16 26  2  0     0  0
 16 27  1  0     0  0
 18 23  2  0     0  0
 18 26  1  0     0  0
 19 28  2  0     0  0
 19 39  1  0     0  0
 20 28  1  0     0  0
 20 38  1  0     0  0
 21 23  1  0     0  0
 21 38  1  0     0  0
 22 24  1  0     0  0
 22 29  2  0     0  0
 23 30  1  0     0  0
 25 31  2  0     0  0
 27 30  2  0     0  0
 29 31  1  0     0  0
 32 39  1  0     0  0
 33 35  1  0     0  0
 34 40  1  0     0  0
 36 40  1  0     0  0
 37 41  1  0     0  0
M  END
> <standard_type>
pIC50

> <# Confs.>
25

> <canonical_smiles>
FC1=CC(NC(CC2=CC(CC3=NC=NC4=C3C=CC(OCCCN(CCOP(O)(O)=O)CC)=C4)=NN2)=O)=CC=C1

> <standard_relation>
=

> <Publication_ID>
Wang_2009

> <predicted_activity_value>
9.455931955649724

> <actual_activity_value>
9.522878745280337

> <Compound>
1

> <standard_units>
nM

> hash
11804495725534374177

$$$$
1_
XXILIB    08252103493D 0   0.00000     0.00000

 41 44  0     1  0            999 V2000
    2.0321   -1.3472   -8.0689 P   0  0  2  0  0  5           0  0  0
   -9.4263   -2.8427   12.1092 F   0  0  0  0  0  1           0  0  0
    1.5983   -0.2651   -9.0157 O   0  0  0  0  0  2           0  0  0
    1.5993   -1.1266   -6.5254 O   0  0  0  0  0  2           0  0  0
    3.6341   -1.5630   -7.9994 O   0  0  0  0  0  2           0  0  0
    1.4805   -2.8194   -8.4436 O   0  0  0  0  0  2           0  0  0
   -0.0000    0.0000    0.0000 O   0  0  0  0  0  2           0  0  0
   -7.7423   -5.1758    6.1507 O   0  0  0  0  0  2           0  0  0
   -5.1954   -3.2772    4.4872 N   0  0  0  0  0  3           0  0  0
   -4.8682   -2.0506    4.0518 N   0  0  0  0  0  3           0  0  0
    0.1114    0.0012    4.8150 N   0  0  0  0  0  3           0  0  0
   -1.9210    0.0160    6.0917 N   0  0  0  0  0  3           0  0  0
   -7.1125   -4.2207    8.1745 N   0  0  0  0  0  3           0  0  0
    1.9553    1.1805   -3.6399 N   0  0  1  0  0  3           0  0  0
   -9.4693   -3.3690   10.8772 C   0  0  0  0  0  4           0  0  0
   -0.5887   -0.0000    1.2326 C   0  0  0  0  0  4           0  0  0
   -0.5874    0.0066    5.9620 C   0  0  0  0  0  4           0  0  0
   -0.5951    0.0024    3.6753 C   0  0  0  0  0  4           0  0  0
   -5.0979   -3.4358    5.8422 C   0  0  0  0  0  4           0  0  0
   -4.5390   -1.3936    5.1726 C   0  0  0  0  0  4           0  0  0
   -2.6279    0.0161    4.9369 C   0  0  0  0  0  4           0  0  0
   -8.3262   -4.0741    8.8724 C   0  0  0  0  0  4           0  0  0
   -2.0033    0.0066    3.6694 C   0  0  0  0  0  4           0  0  0
   -8.2867   -3.5217   10.1568 C   0  0  0  0  0  4           0  0  0
  -10.6931   -3.7548   10.3410 C   0  0  0  0  0  4           0  0  0
    0.0867   -0.0000    2.4581 C   0  0  0  0  0  4           0  0  0
   -1.9800   -0.0015    1.2265 C   0  0  0  0  0  4           0  0  0
   -4.6804   -2.2139    6.3201 C   0  0  0  0  0  4           0  0  0
   -9.5562   -4.4629    8.3252 C   0  0  0  0  0  4           0  0  0
   -2.6819    0.0025    2.4298 C   0  0  0  0  0  4           0  0  0
  -10.7346   -4.3018    9.0603 C   0  0  0  0  0  4           0  0  0
   -6.8812   -4.7314    6.9090 C   0  0  0  0  0  4           0  0  0
    2.0624    0.0315   -5.8490 C   0  0  0  0  0  4           0  0  0
    1.4278    0.0000    0.0000 C   0  0  0  0  0  4           0  0  0
    1.5281    0.0173   -4.4221 C   0  0  0  0  0  4           0  0  0
    1.4657    1.2091   -2.2629 C   0  0  0  0  0  4           0  0  0
    1.8810    2.4581   -4.3458 C   0  0  0  0  0  4           0  0  0
   -4.1210    0.0303    5.1163 C   0  0  0  0  0  4           0  0  0
   -5.4184   -4.7121    6.5277 C   0  0  0  0  0  4           0  0  0
    1.9220    0.0000   -1.4413 C   0  0  0  0  0  4           0  0  0
    0.4577    2.7731   -4.7951 C   0  0  0  0  0  4           0  0  0
  1  3  2  0     0  0
  1  4  1  0     0  0
  1  5  1  0     0  0
  1  6  1  0     0  0
  2 15  1  0     0  0
  4 33  1  0     0  0
  7 16  1  0     0  0
  7 34  1  0     0  0
  8 32  2  0     0  0
  9 10  1  0     0  0
  9 19  1  0     0  0
 10 20  2  0     0  0
 11 17  2  0     0  0
 11 18  1  0     0  0
 12 17  1  0     0  0
 12 21  2  0     0  0
 13 22  1  0     0  0
 13 32  1  0     0  0
 14 35  1  0     0  0
 14 36  1  0     0  0
 14 37  1  0     0  0
 15 24  2  0     0  0
 15 25  1  0     0  0
 16 26  2  0     0  0
 16 27  1  0     0  0
 18 23  2  0     0  0
 18 26  1  0     0  0
 19 28  2  0     0  0
 19 39  1  0     0  0
 20 28  1  0     0  0
 20 38  1  0     0  0
 21 23  1  0     0  0
 21 38  1  0     0  0
 22 24  1  0     0  0
 22 29  2  0     0  0
 23 30  1  0     0  0
 25 31  2  0     0  0
 27 30  2  0     0  0
 29 31  1  0     0  0
 32 39  1  0     0  0
 33 35  1  0     0  0
 34 40  1  0     0  0
 36 40  1  0     0  0
 37 41  1  0     0  0
M  END
> <standard_type>
pIC50

> <# Confs.>
25

> <canonical_smiles>
FC1=CC(NC(CC2=CC(CC3=NC=NC4=C3C=CC(OCCCN(CCOP(O)(O)=O)CC)=C4)=NN2)=O)=CC=C1

> <standard_relation>
=

> <Publication_ID>
Wang_2009

> <predicted_activity_value>
9.455931955649724

> <actual_activity_value>
9.522878745280337

> <Compound>
1

> <standard_units>
nM

> hash
11804495725534374177

$$$$
1_
XXILIB    08252103493D 0   0.00000     0.00000

 41 44  0     1  0            999 V2000
    3.7097   -4.2737   -4.9936 P   0  0  2  0  0  5           0  0  0
    0.0199   -5.6419   11.0302 F   0  0  0  0  0  1           0  0  0
    3.0224   -3.3732   -5.9797 O   0  0  0  0  0  2           0  0  0
    3.5069   -3.8748   -3.4385 O   0  0  0  0  0  2           0  0  0
    5.3160   -4.3477   -5.1725 O   0  0  0  0  0  2           0  0  0
    3.2599   -5.8235   -5.0821 O   0  0  0  0  0  2           0  0  0
   -0.0000    0.0000    0.0000 O   0  0  0  0  0  2           0  0  0
   -3.8773   -6.3708    5.7328 O   0  0  0  0  0  2           0  0  0
   -5.1954   -3.2772    4.4872 N   0  0  0  0  0  3           0  0  0
   -4.8682   -2.0506    4.0518 N   0  0  0  0  0  3           0  0  0
    0.1114    0.0012    4.8150 N   0  0  0  0  0  3           0  0  0
   -1.9210    0.0160    6.0917 N   0  0  0  0  0  3           0  0  0
   -3.4400   -5.3288    7.7644 N   0  0  0  0  0  3           0  0  0
    4.0771   -1.1656   -0.9667 N   0  0  1  0  0  3           0  0  0
   -0.5009   -6.0553    9.8664 C   0  0  0  0  0  4           0  0  0
   -0.5887   -0.0000    1.2326 C   0  0  0  0  0  4           0  0  0
   -0.5874    0.0066    5.9620 C   0  0  0  0  0  4           0  0  0
   -0.5951    0.0024    3.6753 C   0  0  0  0  0  4           0  0  0
   -5.0979   -3.4358    5.8422 C   0  0  0  0  0  4           0  0  0
   -4.5390   -1.3936    5.1726 C   0  0  0  0  0  4           0  0  0
   -2.6279    0.0161    4.9369 C   0  0  0  0  0  4           0  0  0
   -2.2381   -5.9204    8.1970 C   0  0  0  0  0  4           0  0  0
   -2.0033    0.0066    3.6694 C   0  0  0  0  0  4           0  0  0
   -1.6929   -5.4949    9.4128 C   0  0  0  0  0  4           0  0  0
    0.1587   -7.0349    9.1319 C   0  0  0  0  0  4           0  0  0
    0.0867   -0.0000    2.4581 C   0  0  0  0  0  4           0  0  0
   -1.9800   -0.0015    1.2265 C   0  0  0  0  0  4           0  0  0
   -4.6804   -2.2139    6.3201 C   0  0  0  0  0  4           0  0  0
   -1.5797   -6.9086    7.4529 C   0  0  0  0  0  4           0  0  0
   -2.6819    0.0025    2.4298 C   0  0  0  0  0  4           0  0  0
   -0.3849   -7.4624    7.9224 C   0  0  0  0  0  4           0  0  0
   -4.1753   -5.5680    6.6164 C   0  0  0  0  0  4           0  0  0
    3.9499   -2.5999   -3.0009 C   0  0  0  0  0  4           0  0  0
    1.4278   -0.0000   -0.0000 C   0  0  0  0  0  4           0  0  0
    3.6530   -2.4574   -1.5132 C   0  0  0  0  0  4           0  0  0
    3.4467   -0.0000   -1.5837 C   0  0  0  0  0  4           0  0  0
    5.5145   -1.0370   -0.7352 C   0  0  0  0  0  4           0  0  0
   -4.1210    0.0303    5.1163 C   0  0  0  0  0  4           0  0  0
   -5.4184   -4.7121    6.5277 C   0  0  0  0  0  4           0  0  0
    1.9220    0.0000   -1.4413 C   0  0  0  0  0  4           0  0  0
    6.0228   -2.0812    0.2538 C   0  0  0  0  0  4           0  0  0
  1  3  2  0     0  0
  1  4  1  0     0  0
  1  5  1  0     0  0
  1  6  1  0     0  0
  2 15  1  0     0  0
  4 33  1  0     0  0
  7 16  1  0     0  0
  7 34  1  0     0  0
  8 32  2  0     0  0
  9 10  1  0     0  0
  9 19  1  0     0  0
 10 20  2  0     0  0
 11 17  2  0     0  0
 11 18  1  0     0  0
 12 17  1  0     0  0
 12 21  2  0     0  0
 13 22  1  0     0  0
 13 32  1  0     0  0
 14 35  1  0     0  0
 14 36  1  0     0  0
 14 37  1  0     0  0
 15 24  2  0     0  0
 15 25  1  0     0  0
 16 26  2  0     0  0
 16 27  1  0     0  0
 18 23  2  0     0  0
 18 26  1  0     0  0
 19 28  2  0     0  0
 19 39  1  0     0  0
 20 28  1  0     0  0
 20 38  1  0     0  0
 21 23  1  0     0  0
 21 38  1  0     0  0
 22 24  1  0     0  0
 22 29  2  0     0  0
 23 30  1  0     0  0
 25 31  2  0     0  0
 27 30  2  0     0  0
 29 31  1  0     0  0
 32 39  1  0     0  0
 33 35  1  0     0  0
 34 40  1  0     0  0
 36 40  1  0     0  0
 37 41  1  0     0  0
M  END
> <standard_type>
pIC50

> <# Confs.>
25

> <canonical_smiles>
FC1=CC(NC(CC2=CC(CC3=NC=NC4=C3C=CC(OCCCN(CCOP(O)(O)=O)CC)=C4)=NN2)=O)=CC=C1

> <standard_relation>
=

> <Publication_ID>
Wang_2009

> <predicted_activity_value>
9.455931955649724

> <actual_activity_value>
9.522878745280337

> <Compound>
1

> <standard_units>
nM

> hash
11804495725534374177

$$$$
1_
XXILIB    08252103493D 0   0.00000     0.00000

 41 44  0     1  0            999 V2000
    4.4437   -6.2519   -0.8871 P   0  0  2  0  0  5           0  0  0
   -1.3763   -7.6079   11.6255 F   0  0  0  0  0  1           0  0  0
    5.9297   -6.4269   -1.0174 O   0  0  0  0  0  2           0  0  0
    3.8657   -4.8418   -1.4312 O   0  0  0  0  0  2           0  0  0
    3.8977   -6.3383    0.6335 O   0  0  0  0  0  2           0  0  0
    3.5717   -7.3763   -1.6534 O   0  0  0  0  0  2           0  0  0
   -0.0000    0.0000    0.0000 O   0  0  0  0  0  2           0  0  0
   -3.5722   -5.9403    5.6106 O   0  0  0  0  0  2           0  0  0
   -5.1954   -3.2772    4.4872 N   0  0  0  0  0  3           0  0  0
   -4.8682   -2.0506    4.0518 N   0  0  0  0  0  3           0  0  0
    0.1114    0.0012    4.8150 N   0  0  0  0  0  3           0  0  0
   -1.9210    0.0160    6.0917 N   0  0  0  0  0  3           0  0  0
   -3.8114   -5.8519    7.9213 N   0  0  0  0  0  3           0  0  0
    4.0771   -1.1656   -0.9667 N   0  0  1  0  0  3           0  0  0
   -1.5147   -7.4828   10.2982 C   0  0  0  0  0  4           0  0  0
   -0.5887   -0.0000    1.2326 C   0  0  0  0  0  4           0  0  0
   -0.5874    0.0066    5.9620 C   0  0  0  0  0  4           0  0  0
   -0.5951    0.0024    3.6753 C   0  0  0  0  0  4           0  0  0
   -5.0979   -3.4358    5.8422 C   0  0  0  0  0  4           0  0  0
   -4.5390   -1.3936    5.1726 C   0  0  0  0  0  4           0  0  0
   -2.6279    0.0161    4.9369 C   0  0  0  0  0  4           0  0  0
   -2.7271   -6.6091    8.4036 C   0  0  0  0  0  4           0  0  0
   -2.0033    0.0066    3.6694 C   0  0  0  0  0  4           0  0  0
   -2.5808   -6.7456    9.7879 C   0  0  0  0  0  4           0  0  0
   -0.5906   -8.0898    9.4544 C   0  0  0  0  0  4           0  0  0
    0.0867   -0.0000    2.4581 C   0  0  0  0  0  4           0  0  0
   -1.9800   -0.0015    1.2265 C   0  0  0  0  0  4           0  0  0
   -4.6804   -2.2139    6.3201 C   0  0  0  0  0  4           0  0  0
   -1.8008   -7.2199    7.5476 C   0  0  0  0  0  4           0  0  0
   -2.6819    0.0025    2.4298 C   0  0  0  0  0  4           0  0  0
   -0.7369   -7.9578    8.0751 C   0  0  0  0  0  4           0  0  0
   -4.1753   -5.5680    6.6164 C   0  0  0  0  0  4           0  0  0
    4.3362   -3.6411   -0.8396 C   0  0  0  0  0  4           0  0  0
    1.4278    0.0000    0.0000 C   0  0  0  0  0  4           0  0  0
    3.6530   -2.4574   -1.5132 C   0  0  0  0  0  4           0  0  0
    3.4467   -0.0000   -1.5837 C   0  0  0  0  0  4           0  0  0
    5.5145   -1.0370   -0.7352 C   0  0  0  0  0  4           0  0  0
   -4.1210    0.0303    5.1163 C   0  0  0  0  0  4           0  0  0
   -5.4184   -4.7121    6.5277 C   0  0  0  0  0  4           0  0  0
    1.9220    0.0000   -1.4413 C   0  0  0  0  0  4           0  0  0
    6.3120   -1.2128   -2.0236 C   0  0  0  0  0  4           0  0  0
  1  3  2  0     0  0
  1  4  1  0     0  0
  1  5  1  0     0  0
  1  6  1  0     0  0
  2 15  1  0     0  0
  4 33  1  0     0  0
  7 16  1  0     0  0
  7 34  1  0     0  0
  8 32  2  0     0  0
  9 10  1  0     0  0
  9 19  1  0     0  0
 10 20  2  0     0  0
 11 17  2  0     0  0
 11 18  1  0     0  0
 12 17  1  0     0  0
 12 21  2  0     0  0
 13 22  1  0     0  0
 13 32  1  0     0  0
 14 35  1  0     0  0
 14 36  1  0     0  0
 14 37  1  0     0  0
 15 24  2  0     0  0
 15 25  1  0     0  0
 16 26  2  0     0  0
 16 27  1  0     0  0
 18 23  2  0     0  0
 18 26  1  0     0  0
 19 28  2  0     0  0
 19 39  1  0     0  0
 20 28  1  0     0  0
 20 38  1  0     0  0
 21 23  1  0     0  0
 21 38  1  0     0  0
 22 24  1  0     0  0
 22 29  2  0     0  0
 23 30  1  0     0  0
 25 31  2  0     0  0
 27 30  2  0     0  0
 29 31  1  0     0  0
 32 39  1  0     0  0
 33 35  1  0     0  0
 34 40  1  0     0  0
 36 40  1  0     0  0
 37 41  1  0     0  0
M  END
> <standard_type>
pIC50

> <# Confs.>
25

> <canonical_smiles>
FC1=CC(NC(CC2=CC(CC3=NC=NC4=C3C=CC(OCCCN(CCOP(O)(O)=O)CC)=C4)=NN2)=O)=CC=C1

> <standard_relation>
=

> <Publication_ID>
Wang_2009

> <predicted_activity_value>
9.455931955649724

> <actual_activity_value>
9.522878745280337

> <Compound>
1

> <standard_units>
nM

> hash
11804495725534374177

$$$$
1_
XXILIB    08252103493D 0   0.00000     0.00000

 41 44  0     1  0            999 V2000
    6.3907    3.4798   -2.6110 P   0  0  2  0  0  5           0  0  0
    0.0199   -5.6419   11.0302 F   0  0  0  0  0  1           0  0  0
    6.1399    4.8431   -3.1888 O   0  0  0  0  0  2           0  0  0
    5.4722    2.2942   -3.2187 O   0  0  0  0  0  2           0  0  0
    6.1491    3.3828   -1.0141 O   0  0  0  0  0  2           0  0  0
    7.9088    2.9529   -2.7840 O   0  0  0  0  0  2           0  0  0
   -0.0000    0.0000    0.0000 O   0  0  0  0  0  2           0  0  0
   -3.8773   -6.3708    5.7328 O   0  0  0  0  0  2           0  0  0
   -5.1954   -3.2772    4.4872 N   0  0  0  0  0  3           0  0  0
   -4.8682   -2.0506    4.0518 N   0  0  0  0  0  3           0  0  0
    0.1114    0.0012    4.8150 N   0  0  0  0  0  3           0  0  0
   -1.9210    0.0160    6.0917 N   0  0  0  0  0  3           0  0  0
   -3.4400   -5.3288    7.7644 N   0  0  0  0  0  3           0  0  0
    1.9578    1.1803   -3.6470 N   0  0  1  0  0  3           0  0  0
   -0.5009   -6.0553    9.8664 C   0  0  0  0  0  4           0  0  0
   -0.5887   -0.0000    1.2326 C   0  0  0  0  0  4           0  0  0
   -0.5874    0.0066    5.9620 C   0  0  0  0  0  4           0  0  0
   -0.5951    0.0024    3.6753 C   0  0  0  0  0  4           0  0  0
   -5.0979   -3.4358    5.8422 C   0  0  0  0  0  4           0  0  0
   -4.5390   -1.3936    5.1726 C   0  0  0  0  0  4           0  0  0
   -2.6279    0.0161    4.9369 C   0  0  0  0  0  4           0  0  0
   -2.2381   -5.9204    8.1970 C   0  0  0  0  0  4           0  0  0
   -2.0033    0.0066    3.6694 C   0  0  0  0  0  4           0  0  0
   -1.6929   -5.4949    9.4128 C   0  0  0  0  0  4           0  0  0
    0.1587   -7.0349    9.1319 C   0  0  0  0  0  4           0  0  0
    0.0867   -0.0000    2.4581 C   0  0  0  0  0  4           0  0  0
   -1.9800   -0.0015    1.2265 C   0  0  0  0  0  4           0  0  0
   -4.6804   -2.2139    6.3201 C   0  0  0  0  0  4           0  0  0
   -1.5797   -6.9086    7.4529 C   0  0  0  0  0  4           0  0  0
   -2.6819    0.0025    2.4298 C   0  0  0  0  0  4           0  0  0
   -0.3849   -7.4624    7.9224 C   0  0  0  0  0  4           0  0  0
   -4.1753   -5.5680    6.6164 C   0  0  0  0  0  4           0  0  0
    4.0628    2.3923   -3.0885 C   0  0  0  0  0  4           0  0  0
    1.4278    0.0000    0.0000 C   0  0  0  0  0  4           0  0  0
    3.4207    1.1693   -3.7318 C   0  0  0  0  0  4           0  0  0
    1.4657    1.2091   -2.2629 C   0  0  0  0  0  4           0  0  0
    1.3508    2.2750   -4.4166 C   0  0  0  0  0  4           0  0  0
   -4.1210    0.0303    5.1163 C   0  0  0  0  0  4           0  0  0
   -5.4184   -4.7121    6.5277 C   0  0  0  0  0  4           0  0  0
    1.9220    0.0000   -1.4413 C   0  0  0  0  0  4           0  0  0
    1.6991    2.1840   -5.8989 C   0  0  0  0  0  4           0  0  0
  1  3  2  0     0  0
  1  4  1  0     0  0
  1  5  1  0     0  0
  1  6  1  0     0  0
  2 15  1  0     0  0
  4 33  1  0     0  0
  7 16  1  0     0  0
  7 34  1  0     0  0
  8 32  2  0     0  0
  9 10  1  0     0  0
  9 19  1  0     0  0
 10 20  2  0     0  0
 11 17  2  0     0  0
 11 18  1  0     0  0
 12 17  1  0     0  0
 12 21  2  0     0  0
 13 22  1  0     0  0
 13 32  1  0     0  0
 14 35  1  0     0  0
 14 36  1  0     0  0
 14 37  1  0     0  0
 15 24  2  0     0  0
 15 25  1  0     0  0
 16 26  2  0     0  0
 16 27  1  0     0  0
 18 23  2  0     0  0
 18 26  1  0     0  0
 19 28  2  0     0  0
 19 39  1  0     0  0
 20 28  1  0     0  0
 20 38  1  0     0  0
 21 23  1  0     0  0
 21 38  1  0     0  0
 22 24  1  0     0  0
 22 29  2  0     0  0
 23 30  1  0     0  0
 25 31  2  0     0  0
 27 30  2  0     0  0
 29 31  1  0     0  0
 32 39  1  0     0  0
 33 35  1  0     0  0
 34 40  1  0     0  0
 36 40  1  0     0  0
 37 41  1  0     0  0
M  END
> <standard_type>
pIC50

> <# Confs.>
25

> <canonical_smiles>
FC1=CC(NC(CC2=CC(CC3=NC=NC4=C3C=CC(OCCCN(CCOP(O)(O)=O)CC)=C4)=NN2)=O)=CC=C1

> <standard_relation>
=

> <Publication_ID>
Wang_2009

> <predicted_activity_value>
9.455931955649724

> <actual_activity_value>
9.522878745280337

> <Compound>
1

> <standard_units>
nM

> hash
11804495725534374177

$$$$
1_
XXILIB    08252103493D 0   0.00000     0.00000

 41 44  0     1  0            999 V2000
    3.8307    2.4450   -7.4523 P   0  0  2  0  0  5           0  0  0
    0.0199   -5.6419   11.0302 F   0  0  0  0  0  1           0  0  0
    5.3014    2.5252   -7.7460 O   0  0  0  0  0  2           0  0  0
    3.4492    2.2557   -5.8911 O   0  0  0  0  0  2           0  0  0
    3.0737    1.2210   -8.1915 O   0  0  0  0  0  2           0  0  0
    2.9859    3.7382   -7.9275 O   0  0  0  0  0  2           0  0  0
   -0.0000    0.0000    0.0000 O   0  0  0  0  0  2           0  0  0
   -3.8773   -6.3708    5.7328 O   0  0  0  0  0  2           0  0  0
   -5.1954   -3.2772    4.4872 N   0  0  0  0  0  3           0  0  0
   -4.8682   -2.0506    4.0518 N   0  0  0  0  0  3           0  0  0
    0.1114    0.0012    4.8150 N   0  0  0  0  0  3           0  0  0
   -1.9210    0.0160    6.0917 N   0  0  0  0  0  3           0  0  0
   -3.4400   -5.3288    7.7644 N   0  0  0  0  0  3           0  0  0
    3.8894    0.0000   -2.9768 N   0  0  1  0  0  3           0  0  0
   -0.5009   -6.0553    9.8664 C   0  0  0  0  0  4           0  0  0
   -0.5887   -0.0000    1.2326 C   0  0  0  0  0  4           0  0  0
   -0.5874    0.0066    5.9620 C   0  0  0  0  0  4           0  0  0
   -0.5951    0.0024    3.6753 C   0  0  0  0  0  4           0  0  0
   -5.0979   -3.4358    5.8422 C   0  0  0  0  0  4           0  0  0
   -4.5390   -1.3936    5.1726 C   0  0  0  0  0  4           0  0  0
   -2.6279    0.0161    4.9369 C   0  0  0  0  0  4           0  0  0
   -2.2381   -5.9204    8.1970 C   0  0  0  0  0  4           0  0  0
   -2.0033    0.0066    3.6694 C   0  0  0  0  0  4           0  0  0
   -1.6929   -5.4949    9.4128 C   0  0  0  0  0  4           0  0  0
    0.1587   -7.0349    9.1319 C   0  0  0  0  0  4           0  0  0
    0.0867   -0.0000    2.4581 C   0  0  0  0  0  4           0  0  0
   -1.9800   -0.0015    1.2265 C   0  0  0  0  0  4           0  0  0
   -4.6804   -2.2139    6.3201 C   0  0  0  0  0  4           0  0  0
   -1.5797   -6.9086    7.4529 C   0  0  0  0  0  4           0  0  0
   -2.6819    0.0025    2.4298 C   0  0  0  0  0  4           0  0  0
   -0.3849   -7.4624    7.9224 C   0  0  0  0  0  4           0  0  0
   -4.1753   -5.5680    6.6164 C   0  0  0  0  0  4           0  0  0
    3.9282    1.1073   -5.2092 C   0  0  0  0  0  4           0  0  0
    1.4278   -0.0000   -0.0000 C   0  0  0  0  0  4           0  0  0
    3.4427    1.1513   -3.7656 C   0  0  0  0  0  4           0  0  0
    3.4467   -0.0000   -1.5837 C   0  0  0  0  0  4           0  0  0
    5.2864   -0.3797   -3.1782 C   0  0  0  0  0  4           0  0  0
   -4.1210    0.0303    5.1163 C   0  0  0  0  0  4           0  0  0
   -5.4184   -4.7121    6.5277 C   0  0  0  0  0  4           0  0  0
    1.9220    0.0000   -1.4413 C   0  0  0  0  0  4           0  0  0
    6.2382    0.7550   -2.8130 C   0  0  0  0  0  4           0  0  0
  1  3  2  0     0  0
  1  4  1  0     0  0
  1  5  1  0     0  0
  1  6  1  0     0  0
  2 15  1  0     0  0
  4 33  1  0     0  0
  7 16  1  0     0  0
  7 34  1  0     0  0
  8 32  2  0     0  0
  9 10  1  0     0  0
  9 19  1  0     0  0
 10 20  2  0     0  0
 11 17  2  0     0  0
 11 18  1  0     0  0
 12 17  1  0     0  0
 12 21  2  0     0  0
 13 22  1  0     0  0
 13 32  1  0     0  0
 14 35  1  0     0  0
 14 36  1  0     0  0
 14 37  1  0     0  0
 15 24  2  0     0  0
 15 25  1  0     0  0
 16 26  2  0     0  0
 16 27  1  0     0  0
 18 23  2  0     0  0
 18 26  1  0     0  0
 19 28  2  0     0  0
 19 39  1  0     0  0
 20 28  1  0     0  0
 20 38  1  0     0  0
 21 23  1  0     0  0
 21 38  1  0     0  0
 22 24  1  0     0  0
 22 29  2  0     0  0
 23 30  1  0     0  0
 25 31  2  0     0  0
 27 30  2  0     0  0
 29 31  1  0     0  0
 32 39  1  0     0  0
 33 35  1  0     0  0
 34 40  1  0     0  0
 36 40  1  0     0  0
 37 41  1  0     0  0
M  END
> <standard_type>
pIC50

> <# Confs.>
25

> <canonical_smiles>
FC1=CC(NC(CC2=CC(CC3=NC=NC4=C3C=CC(OCCCN(CCOP(O)(O)=O)CC)=C4)=NN2)=O)=CC=C1

> <standard_relation>
=

> <Publication_ID>
Wang_2009

> <predicted_activity_value>
9.455931955649724

> <actual_activity_value>
9.522878745280337

> <Compound>
1

> <standard_units>
nM

> hash
11804495725534374177

$$$$
1_
XXILIB    08252103493D 0   0.00000     0.00000

 41 44  0     1  0            999 V2000
    3.7097   -4.2737   -4.9936 P   0  0  2  0  0  5           0  0  0
   -9.2273    3.0951   12.1040 F   0  0  0  0  0  1           0  0  0
    3.0224   -3.3732   -5.9797 O   0  0  0  0  0  2           0  0  0
    3.5069   -3.8748   -3.4385 O   0  0  0  0  0  2           0  0  0
    5.3160   -4.3477   -5.1725 O   0  0  0  0  0  2           0  0  0
    3.2599   -5.8235   -5.0821 O   0  0  0  0  0  2           0  0  0
    0.0000    0.0000    0.0000 O   0  0  0  0  0  2           0  0  0
   -7.5532    5.3798    6.1240 O   0  0  0  0  0  2           0  0  0
   -5.1127    3.3561    4.4487 N   0  0  0  0  0  3           0  0  0
   -4.8313    2.1126    4.0294 N   0  0  0  0  0  3           0  0  0
    0.1114    0.0012    4.8150 N   0  0  0  0  0  3           0  0  0
   -1.9210    0.0160    6.0917 N   0  0  0  0  0  3           0  0  0
   -6.9247    4.4104    8.1413 N   0  0  0  0  0  3           0  0  0
    4.0771   -1.1656   -0.9667 N   0  0  1  0  0  3           0  0  0
   -9.2685    3.6364   10.8785 C   0  0  0  0  0  4           0  0  0
   -0.5887    0.0000    1.2326 C   0  0  0  0  0  4           0  0  0
   -0.5874    0.0066    5.9620 C   0  0  0  0  0  4           0  0  0
   -0.5951    0.0024    3.6753 C   0  0  0  0  0  4           0  0  0
   -4.9825    3.5357    5.7983 C   0  0  0  0  0  4           0  0  0
   -4.5136    1.4619    5.1573 C   0  0  0  0  0  4           0  0  0
   -2.6279    0.0161    4.9369 C   0  0  0  0  0  4           0  0  0
   -8.1306    4.3135    8.8612 C   0  0  0  0  0  4           0  0  0
   -2.0033    0.0066    3.6694 C   0  0  0  0  0  4           0  0  0
   -8.0918    3.7530   10.1420 C   0  0  0  0  0  4           0  0  0
  -10.4854    4.0702   10.3634 C   0  0  0  0  0  4           0  0  0
    0.0867    0.0000    2.4581 C   0  0  0  0  0  4           0  0  0
   -1.9800   -0.0015    1.2265 C   0  0  0  0  0  4           0  0  0
   -4.5799    2.3137    6.2885 C   0  0  0  0  0  4           0  0  0
   -9.3530    4.7547    8.3370 C   0  0  0  0  0  4           0  0  0
   -2.6819    0.0025    2.4298 C   0  0  0  0  0  4           0  0  0
  -10.5252    4.6321    9.0891 C   0  0  0  0  0  4           0  0  0
   -6.6945    4.9172    6.8741 C   0  0  0  0  0  4           0  0  0
    3.9499   -2.5999   -3.0009 C   0  0  0  0  0  4           0  0  0
    1.4278   -0.0000   -0.0000 C   0  0  0  0  0  4           0  0  0
    3.6530   -2.4574   -1.5132 C   0  0  0  0  0  4           0  0  0
    3.4467   -0.0000   -1.5837 C   0  0  0  0  0  4           0  0  0
    5.5145   -1.0370   -0.7352 C   0  0  0  0  0  4           0  0  0
   -4.1210    0.0303    5.1163 C   0  0  0  0  0  4           0  0  0
   -5.2413    4.8356    6.4653 C   0  0  0  0  0  4           0  0  0
    1.9220    0.0000   -1.4413 C   0  0  0  0  0  4           0  0  0
    6.0228   -2.0812    0.2538 C   0  0  0  0  0  4           0  0  0
  1  3  2  0     0  0
  1  4  1  0     0  0
  1  5  1  0     0  0
  1  6  1  0     0  0
  2 15  1  0     0  0
  4 33  1  0     0  0
  7 16  1  0     0  0
  7 34  1  0     0  0
  8 32  2  0     0  0
  9 10  1  0     0  0
  9 19  1  0     0  0
 10 20  2  0     0  0
 11 17  2  0     0  0
 11 18  1  0     0  0
 12 17  1  0     0  0
 12 21  2  0     0  0
 13 22  1  0     0  0
 13 32  1  0     0  0
 14 35  1  0     0  0
 14 36  1  0     0  0
 14 37  1  0     0  0
 15 24  2  0     0  0
 15 25  1  0     0  0
 16 26  2  0     0  0
 16 27  1  0     0  0
 18 23  2  0     0  0
 18 26  1  0     0  0
 19 28  2  0     0  0
 19 39  1  0     0  0
 20 28  1  0     0  0
 20 38  1  0     0  0
 21 23  1  0     0  0
 21 38  1  0     0  0
 22 24  1  0     0  0
 22 29  2  0     0  0
 23 30  1  0     0  0
 25 31  2  0     0  0
 27 30  2  0     0  0
 29 31  1  0     0  0
 32 39  1  0     0  0
 33 35  1  0     0  0
 34 40  1  0     0  0
 36 40  1  0     0  0
 37 41  1  0     0  0
M  END
> <standard_type>
pIC50

> <# Confs.>
25

> <canonical_smiles>
FC1=CC(NC(CC2=CC(CC3=NC=NC4=C3C=CC(OCCCN(CCOP(O)(O)=O)CC)=C4)=NN2)=O)=CC=C1

> <standard_relation>
=

> <Publication_ID>
Wang_2009

> <predicted_activity_value>
9.455931955649724

> <actual_activity_value>
9.522878745280337

> <Compound>
1

> <standard_units>
nM

> hash
11804495725534374177

$$$$
1_
XXILIB    08252103493D 0   0.00000     0.00000

 41 44  0     1  0            999 V2000
    6.3907    3.4798   -2.6110 P   0  0  2  0  0  5           0  0  0
   -9.2273    3.0951   12.1040 F   0  0  0  0  0  1           0  0  0
    6.1399    4.8431   -3.1888 O   0  0  0  0  0  2           0  0  0
    5.4722    2.2942   -3.2187 O   0  0  0  0  0  2           0  0  0
    6.1491    3.3828   -1.0141 O   0  0  0  0  0  2           0  0  0
    7.9088    2.9529   -2.7840 O   0  0  0  0  0  2           0  0  0
    0.0000    0.0000    0.0000 O   0  0  0  0  0  2           0  0  0
   -7.5532    5.3798    6.1240 O   0  0  0  0  0  2           0  0  0
   -5.1127    3.3561    4.4487 N   0  0  0  0  0  3           0  0  0
   -4.8313    2.1126    4.0294 N   0  0  0  0  0  3           0  0  0
    0.1114    0.0012    4.8150 N   0  0  0  0  0  3           0  0  0
   -1.9210    0.0160    6.0917 N   0  0  0  0  0  3           0  0  0
   -6.9247    4.4104    8.1413 N   0  0  0  0  0  3           0  0  0
    1.9578    1.1803   -3.6470 N   0  0  1  0  0  3           0  0  0
   -9.2685    3.6364   10.8785 C   0  0  0  0  0  4           0  0  0
   -0.5887    0.0000    1.2326 C   0  0  0  0  0  4           0  0  0
   -0.5874    0.0066    5.9620 C   0  0  0  0  0  4           0  0  0
   -0.5951    0.0024    3.6753 C   0  0  0  0  0  4           0  0  0
   -4.9825    3.5357    5.7983 C   0  0  0  0  0  4           0  0  0
   -4.5136    1.4619    5.1573 C   0  0  0  0  0  4           0  0  0
   -2.6279    0.0161    4.9369 C   0  0  0  0  0  4           0  0  0
   -8.1306    4.3135    8.8612 C   0  0  0  0  0  4           0  0  0
   -2.0033    0.0066    3.6694 C   0  0  0  0  0  4           0  0  0
   -8.0918    3.7530   10.1420 C   0  0  0  0  0  4           0  0  0
  -10.4854    4.0702   10.3634 C   0  0  0  0  0  4           0  0  0
    0.0867    0.0000    2.4581 C   0  0  0  0  0  4           0  0  0
   -1.9800   -0.0015    1.2265 C   0  0  0  0  0  4           0  0  0
   -4.5799    2.3137    6.2885 C   0  0  0  0  0  4           0  0  0
   -9.3530    4.7547    8.3370 C   0  0  0  0  0  4           0  0  0
   -2.6819    0.0025    2.4298 C   0  0  0  0  0  4           0  0  0
  -10.5252    4.6321    9.0891 C   0  0  0  0  0  4           0  0  0
   -6.6945    4.9172    6.8741 C   0  0  0  0  0  4           0  0  0
    4.0628    2.3923   -3.0885 C   0  0  0  0  0  4           0  0  0
    1.4278    0.0000    0.0000 C   0  0  0  0  0  4           0  0  0
    3.4207    1.1693   -3.7318 C   0  0  0  0  0  4           0  0  0
    1.4657    1.2091   -2.2629 C   0  0  0  0  0  4           0  0  0
    1.3508    2.2750   -4.4166 C   0  0  0  0  0  4           0  0  0
   -4.1210    0.0303    5.1163 C   0  0  0  0  0  4           0  0  0
   -5.2413    4.8356    6.4653 C   0  0  0  0  0  4           0  0  0
    1.9220    0.0000   -1.4413 C   0  0  0  0  0  4           0  0  0
    1.6991    2.1840   -5.8989 C   0  0  0  0  0  4           0  0  0
  1  3  2  0     0  0
  1  4  1  0     0  0
  1  5  1  0     0  0
  1  6  1  0     0  0
  2 15  1  0     0  0
  4 33  1  0     0  0
  7 16  1  0     0  0
  7 34  1  0     0  0
  8 32  2  0     0  0
  9 10  1  0     0  0
  9 19  1  0     0  0
 10 20  2  0     0  0
 11 17  2  0     0  0
 11 18  1  0     0  0
 12 17  1  0     0  0
 12 21  2  0     0  0
 13 22  1  0     0  0
 13 32  1  0     0  0
 14 35  1  0     0  0
 14 36  1  0     0  0
 14 37  1  0     0  0
 15 24  2  0     0  0
 15 25  1  0     0  0
 16 26  2  0     0  0
 16 27  1  0     0  0
 18 23  2  0     0  0
 18 26  1  0     0  0
 19 28  2  0     0  0
 19 39  1  0     0  0
 20 28  1  0     0  0
 20 38  1  0     0  0
 21 23  1  0     0  0
 21 38  1  0     0  0
 22 24  1  0     0  0
 22 29  2  0     0  0
 23 30  1  0     0  0
 25 31  2  0     0  0
 27 30  2  0     0  0
 29 31  1  0     0  0
 32 39  1  0     0  0
 33 35  1  0     0  0
 34 40  1  0     0  0
 36 40  1  0     0  0
 37 41  1  0     0  0
M  END
> <standard_type>
pIC50

> <# Confs.>
25

> <canonical_smiles>
FC1=CC(NC(CC2=CC(CC3=NC=NC4=C3C=CC(OCCCN(CCOP(O)(O)=O)CC)=C4)=NN2)=O)=CC=C1

> <standard_relation>
=

> <Publication_ID>
Wang_2009

> <predicted_activity_value>
9.455931955649724

> <actual_activity_value>
9.522878745280337

> <Compound>
1

> <standard_units>
nM

> hash
11804495725534374177

$$$$
11_
XXILIB    08252103493D 0   0.00000     0.00000

 30 33  0     1  0            999 V2000
   -6.0463    2.1917    0.6426 O   0  0  0  0  0  2           0  0  0
   -4.5027    2.2968   -1.4514 O   0  0  0  0  0  2           0  0  0
    6.0078   -1.0523   -1.8334 O   0  0  0  0  0  2           0  0  0
    3.5294   -0.5646   -0.9836 N   0  0  0  0  0  3           0  0  0
    3.4641    0.6340    1.0807 N   0  0  0  0  0  3           0  0  0
   -0.5352   -0.5943    2.2426 N   0  0  0  0  0  3           0  0  0
   -2.6702   -0.0682    3.1970 N   0  0  0  0  0  3           0  0  0
    0.0000    0.0000    0.0000 N   0  0  0  0  0  3           0  0  0
    5.5367    0.0854    0.1266 N   0  0  0  0  0  3           0  0  0
   -4.8031    1.6434    0.7828 C   0  0  0  0  0  4           0  0  0
   -3.9735    1.7016   -0.3417 C   0  0  0  0  0  4           0  0  0
    4.1270    0.0448    0.0637 C   0  0  0  0  0  4           0  0  0
   -1.4346   -0.5872    3.2356 C   0  0  0  0  0  4           0  0  0
   -0.9059   -0.0000    1.0820 C   0  0  0  0  0  4           0  0  0
   -3.0494    0.4975    2.0435 C   0  0  0  0  0  4           0  0  0
    2.1767   -0.5693   -0.9860 C   0  0  0  0  0  4           0  0  0
    2.1142    0.5950    1.0188 C   0  0  0  0  0  4           0  0  0
    1.3912   -0.0000   -0.0000 C   0  0  0  0  0  4           0  0  0
   -2.1996    0.5594    0.9228 C   0  0  0  0  0  4           0  0  0
    7.8286   -0.3087   -0.5646 C   0  0  0  0  0  4           0  0  0
   -4.3301    1.0388    1.9547 C   0  0  0  0  0  4           0  0  0
   -2.6846    1.1612   -0.2668 C   0  0  0  0  0  4           0  0  0
    8.2860   -0.2011    0.7496 C   0  0  0  0  0  4           0  0  0
    8.7137   -0.2939   -1.6434 C   0  0  0  0  0  4           0  0  0
    9.6541   -0.0680    0.9830 C   0  0  0  0  0  4           0  0  0
   10.0797   -0.1606   -1.3987 C   0  0  0  0  0  4           0  0  0
   10.5492   -0.0471   -0.0885 C   0  0  0  0  0  4           0  0  0
    6.3764   -0.4623   -0.8200 C   0  0  0  0  0  4           0  0  0
   -6.8785    2.1239    1.7975 C   0  0  0  0  0  4           0  0  0
   -3.6433    2.3470   -2.5871 C   0  0  0  0  0  4           0  0  0
  1 10  1  0     0  0
  1 29  1  0     0  0
  2 11  1  0     0  0
  2 30  1  0     0  0
  3 28  2  0     0  0
  4 12  2  0     0  0
  4 16  1  0     0  0
  5 12  1  0     0  0
  5 17  2  0     0  0
  6 13  1  0     0  0
  6 14  2  0     0  0
  7 13  2  0     0  0
  7 15  1  0     0  0
  8 14  1  0     0  0
  8 18  1  0     0  0
  9 12  1  0     0  0
  9 28  1  0     0  0
 10 11  1  0     0  0
 10 21  2  0     0  0
 11 22  2  0     0  0
 14 19  1  0     0  0
 15 19  2  0     0  0
 15 21  1  0     0  0
 16 18  2  0     0  0
 17 18  1  0     0  0
 19 22  1  0     0  0
 20 23  2  0     0  0
 20 24  1  0     0  0
 20 28  1  0     0  0
 23 25  1  0     0  0
 24 26  2  0     0  0
 25 27  2  0     0  0
 26 27  1  0     0  0
M  END
> <standard_type>
pIC50

> <# Confs.>
25

> <canonical_smiles>
O=C(NC1=NC=C(NC2=NC=NC3=C2C=C(OC)C(OC)=C3)C=N1)C4=CC=CC=C4

> <standard_relation>
=

> <Publication_ID>
nan

> <predicted_activity_value>
7.721246399047171

> <actual_activity_value>
7.6020599913279625

> <Compound>
11

> <standard_units>
nM

> hash
7075920698246586756

$$$$
11_
XXILIB    08252103493D 0   0.00000     0.00000

 30 33  0     1  0            999 V2000
   -6.0463    2.1917    0.6426 O   0  0  0  0  0  2           0  0  0
   -4.5027    2.2968   -1.4514 O   0  0  0  0  0  2           0  0  0
    6.0078   -0.0054    2.1139 O   0  0  0  0  0  2           0  0  0
    3.5294   -0.0028    1.1341 N   0  0  0  0  0  3           0  0  0
    3.4641   -0.0087   -1.2529 N   0  0  0  0  0  3           0  0  0
   -0.5352   -0.5943    2.2426 N   0  0  0  0  0  3           0  0  0
   -2.6702   -0.0682    3.1970 N   0  0  0  0  0  3           0  0  0
    0.0000    0.0000    0.0000 N   0  0  0  0  0  3           0  0  0
    5.5367   -0.0106   -0.1523 N   0  0  0  0  0  3           0  0  0
   -4.8031    1.6434    0.7828 C   0  0  0  0  0  4           0  0  0
   -3.9735    1.7016   -0.3417 C   0  0  0  0  0  4           0  0  0
    4.1270   -0.0070   -0.0776 C   0  0  0  0  0  4           0  0  0
   -1.4346   -0.5872    3.2356 C   0  0  0  0  0  4           0  0  0
   -0.9059   -0.0000    1.0820 C   0  0  0  0  0  4           0  0  0
   -3.0494    0.4975    2.0435 C   0  0  0  0  0  4           0  0  0
    2.1767   -0.0000    1.1386 C   0  0  0  0  0  4           0  0  0
    2.1142   -0.0059   -1.1798 C   0  0  0  0  0  4           0  0  0
    1.3912    0.0000    0.0000 C   0  0  0  0  0  4           0  0  0
   -2.1996    0.5594    0.9228 C   0  0  0  0  0  4           0  0  0
    7.8286   -0.0150    0.6433 C   0  0  0  0  0  4           0  0  0
   -4.3301    1.0388    1.9547 C   0  0  0  0  0  4           0  0  0
   -2.6846    1.1612   -0.2668 C   0  0  0  0  0  4           0  0  0
    8.2860    0.5490   -0.5486 C   0  0  0  0  0  4           0  0  0
    8.7137   -0.5672    1.5702 C   0  0  0  0  0  4           0  0  0
    9.6541    0.5504   -0.8173 C   0  0  0  0  0  4           0  0  0
   10.0797   -0.5603    1.2916 C   0  0  0  0  0  4           0  0  0
   10.5492   -0.0035    0.1001 C   0  0  0  0  0  4           0  0  0
    6.3764   -0.0096    0.9413 C   0  0  0  0  0  4           0  0  0
   -6.8785    2.1239    1.7975 C   0  0  0  0  0  4           0  0  0
   -3.6433    2.3470   -2.5871 C   0  0  0  0  0  4           0  0  0
  1 10  1  0     0  0
  1 29  1  0     0  0
  2 11  1  0     0  0
  2 30  1  0     0  0
  3 28  2  0     0  0
  4 12  2  0     0  0
  4 16  1  0     0  0
  5 12  1  0     0  0
  5 17  2  0     0  0
  6 13  1  0     0  0
  6 14  2  0     0  0
  7 13  2  0     0  0
  7 15  1  0     0  0
  8 14  1  0     0  0
  8 18  1  0     0  0
  9 12  1  0     0  0
  9 28  1  0     0  0
 10 11  1  0     0  0
 10 21  2  0     0  0
 11 22  2  0     0  0
 14 19  1  0     0  0
 15 19  2  0     0  0
 15 21  1  0     0  0
 16 18  2  0     0  0
 17 18  1  0     0  0
 19 22  1  0     0  0
 20 23  2  0     0  0
 20 24  1  0     0  0
 20 28  1  0     0  0
 23 25  1  0     0  0
 24 26  2  0     0  0
 25 27  2  0     0  0
 26 27  1  0     0  0
M  END
> <standard_type>
pIC50

> <# Confs.>
25

> <canonical_smiles>
O=C(NC1=NC=C(NC2=NC=NC3=C2C=C(OC)C(OC)=C3)C=N1)C4=CC=CC=C4

> <standard_relation>
=

> <Publication_ID>
nan

> <predicted_activity_value>
7.721246399047171

> <actual_activity_value>
7.6020599913279625

> <Compound>
11

> <standard_units>
nM

> hash
7075920698246586756

$$$$
11_
XXILIB    08252103493D 0   0.00000     0.00000

 30 33  0     1  0            999 V2000
   -6.0463    2.1917    0.6426 O   0  0  0  0  0  2           0  0  0
   -4.5027    2.2968   -1.4514 O   0  0  0  0  0  2           0  0  0
    6.0078    1.0523    1.8334 O   0  0  0  0  0  2           0  0  0
    3.5294    0.5646    0.9836 N   0  0  0  0  0  3           0  0  0
    3.4641   -0.6340   -1.0807 N   0  0  0  0  0  3           0  0  0
   -0.5352   -0.5943    2.2426 N   0  0  0  0  0  3           0  0  0
   -2.6702   -0.0682    3.1970 N   0  0  0  0  0  3           0  0  0
    0.0000    0.0000    0.0000 N   0  0  0  0  0  3           0  0  0
    5.5367   -0.0854   -0.1266 N   0  0  0  0  0  3           0  0  0
   -4.8031    1.6434    0.7828 C   0  0  0  0  0  4           0  0  0
   -3.9735    1.7016   -0.3417 C   0  0  0  0  0  4           0  0  0
    4.1270   -0.0448   -0.0637 C   0  0  0  0  0  4           0  0  0
   -1.4346   -0.5872    3.2356 C   0  0  0  0  0  4           0  0  0
   -0.9059   -0.0000    1.0820 C   0  0  0  0  0  4           0  0  0
   -3.0494    0.4975    2.0435 C   0  0  0  0  0  4           0  0  0
    2.1767    0.5693    0.9860 C   0  0  0  0  0  4           0  0  0
    2.1142   -0.5950   -1.0188 C   0  0  0  0  0  4           0  0  0
    1.3912    0.0000    0.0000 C   0  0  0  0  0  4           0  0  0
   -2.1996    0.5594    0.9228 C   0  0  0  0  0  4           0  0  0
    7.8286    0.3087    0.5646 C   0  0  0  0  0  4           0  0  0
   -4.3301    1.0388    1.9547 C   0  0  0  0  0  4           0  0  0
   -2.6846    1.1612   -0.2668 C   0  0  0  0  0  4           0  0  0
    8.7214    1.2368    1.1026 C   0  0  0  0  0  4           0  0  0
    8.2777   -0.7734   -0.1938 C   0  0  0  0  0  4           0  0  0
   10.0866    1.0799    0.8676 C   0  0  0  0  0  4           0  0  0
    9.6450   -0.9209   -0.4224 C   0  0  0  0  0  4           0  0  0
   10.5478    0.0040    0.1064 C   0  0  0  0  0  4           0  0  0
    6.3764    0.4623    0.8200 C   0  0  0  0  0  4           0  0  0
   -6.8785    2.1239    1.7975 C   0  0  0  0  0  4           0  0  0
   -3.6433    2.3470   -2.5871 C   0  0  0  0  0  4           0  0  0
  1 10  1  0     0  0
  1 29  1  0     0  0
  2 11  1  0     0  0
  2 30  1  0     0  0
  3 28  2  0     0  0
  4 12  2  0     0  0
  4 16  1  0     0  0
  5 12  1  0     0  0
  5 17  2  0     0  0
  6 13  1  0     0  0
  6 14  2  0     0  0
  7 13  2  0     0  0
  7 15  1  0     0  0
  8 14  1  0     0  0
  8 18  1  0     0  0
  9 12  1  0     0  0
  9 28  1  0     0  0
 10 11  1  0     0  0
 10 21  2  0     0  0
 11 22  2  0     0  0
 14 19  1  0     0  0
 15 19  2  0     0  0
 15 21  1  0     0  0
 16 18  2  0     0  0
 17 18  1  0     0  0
 19 22  1  0     0  0
 20 23  2  0     0  0
 20 24  1  0     0  0
 20 28  1  0     0  0
 23 25  1  0     0  0
 24 26  2  0     0  0
 25 27  2  0     0  0
 26 27  1  0     0  0
M  END
> <standard_type>
pIC50

> <# Confs.>
25

> <canonical_smiles>
O=C(NC1=NC=C(NC2=NC=NC3=C2C=C(OC)C(OC)=C3)C=N1)C4=CC=CC=C4

> <standard_relation>
=

> <Publication_ID>
nan

> <predicted_activity_value>
7.721246399047171

> <actual_activity_value>
7.6020599913279625

> <Compound>
11

> <standard_units>
nM

> hash
7075920698246586756

$$$$
11_
XXILIB    08252103493D 0   0.00000     0.00000

 30 33  0     1  0            999 V2000
   -5.8824   -2.5618    0.7797 O   0  0  0  0  0  2           0  0  0
   -4.3471   -2.6484   -1.3211 O   0  0  0  0  0  2           0  0  0
    6.0078    0.0054   -2.1139 O   0  0  0  0  0  2           0  0  0
    3.5294    0.0028   -1.1341 N   0  0  0  0  0  3           0  0  0
    3.4641    0.0087    1.2529 N   0  0  0  0  0  3           0  0  0
   -0.5352    0.5943    2.2426 N   0  0  0  0  0  3           0  0  0
   -2.6269   -0.0298    3.2333 N   0  0  0  0  0  3           0  0  0
    0.0000    0.0000   -0.0000 N   0  0  0  0  0  3           0  0  0
    5.5367    0.0106    0.1523 N   0  0  0  0  0  3           0  0  0
   -4.6752   -1.9324    0.8899 C   0  0  0  0  0  4           0  0  0
   -3.8513   -1.9776   -0.2394 C   0  0  0  0  0  4           0  0  0
    4.1270    0.0070    0.0776 C   0  0  0  0  0  4           0  0  0
   -1.4193    0.5526    3.2484 C   0  0  0  0  0  4           0  0  0
   -0.9059    0.0000    1.0820 C   0  0  0  0  0  4           0  0  0
   -2.9863   -0.6400    2.0963 C   0  0  0  0  0  4           0  0  0
    2.1767    0.0000   -1.1386 C   0  0  0  0  0  4           0  0  0
    2.1142    0.0059    1.1798 C   0  0  0  0  0  4           0  0  0
    1.3912    0.0000   -0.0000 C   0  0  0  0  0  4           0  0  0
   -2.1515   -0.6678    0.9630 C   0  0  0  0  0  4           0  0  0
    7.8286    0.0150   -0.6433 C   0  0  0  0  0  4           0  0  0
   -4.2282   -1.2692    2.0401 C   0  0  0  0  0  4           0  0  0
   -2.6009   -1.3503   -0.1967 C   0  0  0  0  0  4           0  0  0
    8.2860   -0.5490    0.5486 C   0  0  0  0  0  4           0  0  0
    8.7137    0.5672   -1.5702 C   0  0  0  0  0  4           0  0  0
    9.6541   -0.5504    0.8173 C   0  0  0  0  0  4           0  0  0
   10.0797    0.5603   -1.2916 C   0  0  0  0  0  4           0  0  0
   10.5492    0.0035   -0.1001 C   0  0  0  0  0  4           0  0  0
    6.3764    0.0096   -0.9413 C   0  0  0  0  0  4           0  0  0
   -6.7093   -2.5061    1.9392 C   0  0  0  0  0  4           0  0  0
   -3.4941   -2.6840   -2.4622 C   0  0  0  0  0  4           0  0  0
  1 10  1  0     0  0
  1 29  1  0     0  0
  2 11  1  0     0  0
  2 30  1  0     0  0
  3 28  2  0     0  0
  4 12  2  0     0  0
  4 16  1  0     0  0
  5 12  1  0     0  0
  5 17  2  0     0  0
  6 13  1  0     0  0
  6 14  2  0     0  0
  7 13  2  0     0  0
  7 15  1  0     0  0
  8 14  1  0     0  0
  8 18  1  0     0  0
  9 12  1  0     0  0
  9 28  1  0     0  0
 10 11  1  0     0  0
 10 21  2  0     0  0
 11 22  2  0     0  0
 14 19  1  0     0  0
 15 19  2  0     0  0
 15 21  1  0     0  0
 16 18  2  0     0  0
 17 18  1  0     0  0
 19 22  1  0     0  0
 20 23  2  0     0  0
 20 24  1  0     0  0
 20 28  1  0     0  0
 23 25  1  0     0  0
 24 26  2  0     0  0
 25 27  2  0     0  0
 26 27  1  0     0  0
M  END
> <standard_type>
pIC50

> <# Confs.>
25

> <canonical_smiles>
O=C(NC1=NC=C(NC2=NC=NC3=C2C=C(OC)C(OC)=C3)C=N1)C4=CC=CC=C4

> <standard_relation>
=

> <Publication_ID>
nan

> <predicted_activity_value>
7.721246399047171

> <actual_activity_value>
7.6020599913279625

> <Compound>
11

> <standard_units>
nM

> hash
7075920698246586756

$$$$
11_
XXILIB    08252103493D 0   0.00000     0.00000

 30 33  0     1  0            999 V2000
   -5.8824   -2.5618    0.7797 O   0  0  0  0  0  2           0  0  0
   -4.3471   -2.6484   -1.3211 O   0  0  0  0  0  2           0  0  0
    6.0078   -0.0054    2.1139 O   0  0  0  0  0  2           0  0  0
    3.5294   -0.0028    1.1341 N   0  0  0  0  0  3           0  0  0
    3.4641   -0.0087   -1.2529 N   0  0  0  0  0  3           0  0  0
   -0.5352    0.5943    2.2426 N   0  0  0  0  0  3           0  0  0
   -2.6269   -0.0298    3.2333 N   0  0  0  0  0  3           0  0  0
    0.0000    0.0000   -0.0000 N   0  0  0  0  0  3           0  0  0
    5.5367   -0.0106   -0.1523 N   0  0  0  0  0  3           0  0  0
   -4.6752   -1.9324    0.8899 C   0  0  0  0  0  4           0  0  0
   -3.8513   -1.9776   -0.2394 C   0  0  0  0  0  4           0  0  0
    4.1270   -0.0070   -0.0776 C   0  0  0  0  0  4           0  0  0
   -1.4193    0.5526    3.2484 C   0  0  0  0  0  4           0  0  0
   -0.9059    0.0000    1.0820 C   0  0  0  0  0  4           0  0  0
   -2.9863   -0.6400    2.0963 C   0  0  0  0  0  4           0  0  0
    2.1767   -0.0000    1.1386 C   0  0  0  0  0  4           0  0  0
    2.1142   -0.0059   -1.1798 C   0  0  0  0  0  4           0  0  0
    1.3912    0.0000    0.0000 C   0  0  0  0  0  4           0  0  0
   -2.1515   -0.6678    0.9630 C   0  0  0  0  0  4           0  0  0
    7.8286   -0.0150    0.6433 C   0  0  0  0  0  4           0  0  0
   -4.2282   -1.2692    2.0401 C   0  0  0  0  0  4           0  0  0
   -2.6009   -1.3503   -0.1967 C   0  0  0  0  0  4           0  0  0
    8.2860    0.5490   -0.5486 C   0  0  0  0  0  4           0  0  0
    8.7137   -0.5672    1.5702 C   0  0  0  0  0  4           0  0  0
    9.6541    0.5504   -0.8173 C   0  0  0  0  0  4           0  0  0
   10.0797   -0.5603    1.2916 C   0  0  0  0  0  4           0  0  0
   10.5492   -0.0035    0.1001 C   0  0  0  0  0  4           0  0  0
    6.3764   -0.0096    0.9413 C   0  0  0  0  0  4           0  0  0
   -6.7093   -2.5061    1.9392 C   0  0  0  0  0  4           0  0  0
   -3.4941   -2.6840   -2.4622 C   0  0  0  0  0  4           0  0  0
  1 10  1  0     0  0
  1 29  1  0     0  0
  2 11  1  0     0  0
  2 30  1  0     0  0
  3 28  2  0     0  0
  4 12  2  0     0  0
  4 16  1  0     0  0
  5 12  1  0     0  0
  5 17  2  0     0  0
  6 13  1  0     0  0
  6 14  2  0     0  0
  7 13  2  0     0  0
  7 15  1  0     0  0
  8 14  1  0     0  0
  8 18  1  0     0  0
  9 12  1  0     0  0
  9 28  1  0     0  0
 10 11  1  0     0  0
 10 21  2  0     0  0
 11 22  2  0     0  0
 14 19  1  0     0  0
 15 19  2  0     0  0
 15 21  1  0     0  0
 16 18  2  0     0  0
 17 18  1  0     0  0
 19 22  1  0     0  0
 20 23  2  0     0  0
 20 24  1  0     0  0
 20 28  1  0     0  0
 23 25  1  0     0  0
 24 26  2  0     0  0
 25 27  2  0     0  0
 26 27  1  0     0  0
M  END
> <standard_type>
pIC50

> <# Confs.>
25

> <canonical_smiles>
O=C(NC1=NC=C(NC2=NC=NC3=C2C=C(OC)C(OC)=C3)C=N1)C4=CC=CC=C4

> <standard_relation>
=

> <Publication_ID>
nan

> <predicted_activity_value>
7.721246399047171

> <actual_activity_value>
7.6020599913279625

> <Compound>
11

> <standard_units>
nM

> hash
7075920698246586756

$$$$
11_
XXILIB    08252103493D 0   0.00000     0.00000

 30 33  0     1  0            999 V2000
   -4.4884   -4.2234    1.9469 O   0  0  0  0  0  2           0  0  0
   -2.9023   -4.3841   -0.1114 O   0  0  0  0  0  2           0  0  0
    6.0078    0.0054   -2.1139 O   0  0  0  0  0  2           0  0  0
    3.5294    0.0028   -1.1341 N   0  0  0  0  0  3           0  0  0
    3.4641    0.0087    1.2529 N   0  0  0  0  0  3           0  0  0
   -0.8687    1.0294    1.9633 N   0  0  0  0  0  3           0  0  0
   -2.6218    0.0050    3.2376 N   0  0  0  0  0  3           0  0  0
    0.0000    0.0000    0.0000 N   0  0  0  0  0  3           0  0  0
    5.5367    0.0106    0.1523 N   0  0  0  0  0  3           0  0  0
   -3.6248   -3.1802    1.7694 C   0  0  0  0  0  4           0  0  0
   -2.7741   -3.2660    0.6626 C   0  0  0  0  0  4           0  0  0
    4.1270    0.0070    0.0776 C   0  0  0  0  0  4           0  0  0
   -1.7336    0.9772    2.9852 C   0  0  0  0  0  4           0  0  0
   -0.9059    0.0000    1.0820 C   0  0  0  0  0  4           0  0  0
   -2.6439   -1.0262    2.3829 C   0  0  0  0  0  4           0  0  0
    2.1767    0.0000   -1.1386 C   0  0  0  0  0  4           0  0  0
    2.1142    0.0059    1.1798 C   0  0  0  0  0  4           0  0  0
    1.3912    0.0000   -0.0000 C   0  0  0  0  0  4           0  0  0
   -1.7896   -1.0941    1.2661 C   0  0  0  0  0  4           0  0  0
    7.8286    0.0150   -0.6433 C   0  0  0  0  0  4           0  0  0
   -3.5431   -2.0653    2.6136 C   0  0  0  0  0  4           0  0  0
   -1.8654   -2.2297    0.4191 C   0  0  0  0  0  4           0  0  0
    8.2860   -0.5490    0.5486 C   0  0  0  0  0  4           0  0  0
    8.7137    0.5672   -1.5702 C   0  0  0  0  0  4           0  0  0
    9.6541   -0.5504    0.8173 C   0  0  0  0  0  4           0  0  0
   10.0797    0.5603   -1.2916 C   0  0  0  0  0  4           0  0  0
   10.5492    0.0035   -0.1001 C   0  0  0  0  0  4           0  0  0
    6.3764    0.0096   -0.9413 C   0  0  0  0  0  4           0  0  0
   -5.3479   -4.1201    3.0790 C   0  0  0  0  0  4           0  0  0
   -2.0276   -4.4543   -1.2344 C   0  0  0  0  0  4           0  0  0
  1 10  1  0     0  0
  1 29  1  0     0  0
  2 11  1  0     0  0
  2 30  1  0     0  0
  3 28  2  0     0  0
  4 12  2  0     0  0
  4 16  1  0     0  0
  5 12  1  0     0  0
  5 17  2  0     0  0
  6 13  1  0     0  0
  6 14  2  0     0  0
  7 13  2  0     0  0
  7 15  1  0     0  0
  8 14  1  0     0  0
  8 18  1  0     0  0
  9 12  1  0     0  0
  9 28  1  0     0  0
 10 11  1  0     0  0
 10 21  2  0     0  0
 11 22  2  0     0  0
 14 19  1  0     0  0
 15 19  2  0     0  0
 15 21  1  0     0  0
 16 18  2  0     0  0
 17 18  1  0     0  0
 19 22  1  0     0  0
 20 23  2  0     0  0
 20 24  1  0     0  0
 20 28  1  0     0  0
 23 25  1  0     0  0
 24 26  2  0     0  0
 25 27  2  0     0  0
 26 27  1  0     0  0
M  END
> <standard_type>
pIC50

> <# Confs.>
25

> <canonical_smiles>
O=C(NC1=NC=C(NC2=NC=NC3=C2C=C(OC)C(OC)=C3)C=N1)C4=CC=CC=C4

> <standard_relation>
=

> <Publication_ID>
nan

> <predicted_activity_value>
7.721246399047171

> <actual_activity_value>
7.6020599913279625

> <Compound>
11

> <standard_units>
nM

> hash
7075920698246586756

$$$$
11_
XXILIB    08252103493D 0   0.00000     0.00000

 30 33  0     1  0            999 V2000
   -6.4526   -0.2137    0.3023 O   0  0  0  0  0  2           0  0  0
   -4.9329   -0.2030   -1.8115 O   0  0  0  0  0  2           0  0  0
    6.0078   -1.0523   -1.8334 O   0  0  0  0  0  2           0  0  0
    3.5294   -0.5646   -0.9836 N   0  0  0  0  0  3           0  0  0
    3.4641    0.6340    1.0807 N   0  0  0  0  0  3           0  0  0
   -0.4131    0.0000    2.3449 N   0  0  0  0  0  3           0  0  0
   -2.6446   -0.0566    3.2185 N   0  0  0  0  0  3           0  0  0
    0.0000    0.0000   -0.0000 N   0  0  0  0  0  3           0  0  0
    5.5367    0.0854    0.1266 N   0  0  0  0  0  3           0  0  0
   -5.1065   -0.1668    0.5288 C   0  0  0  0  0  4           0  0  0
   -4.2904   -0.1593   -0.6070 C   0  0  0  0  0  4           0  0  0
    4.1270    0.0448    0.0637 C   0  0  0  0  0  4           0  0  0
   -1.3098   -0.0200    3.3400 C   0  0  0  0  0  4           0  0  0
   -0.9059    0.0000    1.0820 C   0  0  0  0  0  4           0  0  0
   -3.1347   -0.0823    1.9721 C   0  0  0  0  0  4           0  0  0
    2.1767   -0.5693   -0.9860 C   0  0  0  0  0  4           0  0  0
    2.1142    0.5950    1.0188 C   0  0  0  0  0  4           0  0  0
    1.3912   -0.0000   -0.0000 C   0  0  0  0  0  4           0  0  0
   -2.3016   -0.0626    0.8374 C   0  0  0  0  0  4           0  0  0
    7.8286   -0.3087   -0.5646 C   0  0  0  0  0  4           0  0  0
   -4.5162   -0.1330    1.7989 C   0  0  0  0  0  4           0  0  0
   -2.9008   -0.1092   -0.4477 C   0  0  0  0  0  4           0  0  0
    8.2860   -0.2011    0.7496 C   0  0  0  0  0  4           0  0  0
    8.7137   -0.2939   -1.6434 C   0  0  0  0  0  4           0  0  0
    9.6541   -0.0680    0.9830 C   0  0  0  0  0  4           0  0  0
   10.0797   -0.1606   -1.3987 C   0  0  0  0  0  4           0  0  0
   10.5492   -0.0471   -0.0885 C   0  0  0  0  0  4           0  0  0
    6.3764   -0.4623   -0.8200 C   0  0  0  0  0  4           0  0  0
   -7.2695   -0.2207    1.4702 C   0  0  0  0  0  4           0  0  0
   -4.0855   -0.1946   -2.9574 C   0  0  0  0  0  4           0  0  0
  1 10  1  0     0  0
  1 29  1  0     0  0
  2 11  1  0     0  0
  2 30  1  0     0  0
  3 28  2  0     0  0
  4 12  2  0     0  0
  4 16  1  0     0  0
  5 12  1  0     0  0
  5 17  2  0     0  0
  6 13  1  0     0  0
  6 14  2  0     0  0
  7 13  2  0     0  0
  7 15  1  0     0  0
  8 14  1  0     0  0
  8 18  1  0     0  0
  9 12  1  0     0  0
  9 28  1  0     0  0
 10 11  1  0     0  0
 10 21  2  0     0  0
 11 22  2  0     0  0
 14 19  1  0     0  0
 15 19  2  0     0  0
 15 21  1  0     0  0
 16 18  2  0     0  0
 17 18  1  0     0  0
 19 22  1  0     0  0
 20 23  2  0     0  0
 20 24  1  0     0  0
 20 28  1  0     0  0
 23 25  1  0     0  0
 24 26  2  0     0  0
 25 27  2  0     0  0
 26 27  1  0     0  0
M  END
> <standard_type>
pIC50

> <# Confs.>
25

> <canonical_smiles>
O=C(NC1=NC=C(NC2=NC=NC3=C2C=C(OC)C(OC)=C3)C=N1)C4=CC=CC=C4

> <standard_relation>
=

> <Publication_ID>
nan

> <predicted_activity_value>
7.721246399047171

> <actual_activity_value>
7.6020599913279625

> <Compound>
11

> <standard_units>
nM

> hash
7075920698246586756

$$$$
11_
XXILIB    08252103493D 0   0.00000     0.00000

 30 33  0     1  0            999 V2000
   -4.7722    4.0097    1.7093 O   0  0  0  0  0  2           0  0  0
   -3.1718    4.1812   -0.3371 O   0  0  0  0  0  2           0  0  0
    6.0078    0.0054   -2.1139 O   0  0  0  0  0  2           0  0  0
    3.5294    0.0028   -1.1341 N   0  0  0  0  0  3           0  0  0
    3.4641    0.0087    1.2529 N   0  0  0  0  0  3           0  0  0
   -0.8687   -1.0294    1.9633 N   0  0  0  0  0  3           0  0  0
   -2.6969   -0.0615    3.1747 N   0  0  0  0  0  3           0  0  0
    0.0000    0.0000    0.0000 N   0  0  0  0  0  3           0  0  0
    5.5367    0.0106    0.1523 N   0  0  0  0  0  3           0  0  0
   -3.8464    3.0133    1.5838 C   0  0  0  0  0  4           0  0  0
   -2.9856    3.1067    0.4854 C   0  0  0  0  0  4           0  0  0
    4.1270    0.0070    0.0776 C   0  0  0  0  0  4           0  0  0
   -1.7601   -0.9971    2.9631 C   0  0  0  0  0  4           0  0  0
   -0.9059    0.0000    1.0820 C   0  0  0  0  0  4           0  0  0
   -2.7532    0.9439    2.2914 C   0  0  0  0  0  4           0  0  0
    2.1767    0.0000   -1.1386 C   0  0  0  0  0  4           0  0  0
    2.1142    0.0059    1.1798 C   0  0  0  0  0  4           0  0  0
    1.3912    0.0000   -0.0000 C   0  0  0  0  0  4           0  0  0
   -1.8727    1.0315    1.1965 C   0  0  0  0  0  4           0  0  0
    7.8286    0.0150   -0.6433 C   0  0  0  0  0  4           0  0  0
   -3.7197    1.9323    2.4658 C   0  0  0  0  0  4           0  0  0
   -2.0104    2.1205    0.2977 C   0  0  0  0  0  4           0  0  0
    8.2860   -0.5490    0.5486 C   0  0  0  0  0  4           0  0  0
    8.7137    0.5672   -1.5702 C   0  0  0  0  0  4           0  0  0
    9.6541   -0.5504    0.8173 C   0  0  0  0  0  4           0  0  0
   10.0797    0.5603   -1.2916 C   0  0  0  0  0  4           0  0  0
   10.5492    0.0035   -0.1001 C   0  0  0  0  0  4           0  0  0
    6.3764    0.0096   -0.9413 C   0  0  0  0  0  4           0  0  0
   -5.6410    3.8994    2.8336 C   0  0  0  0  0  4           0  0  0
   -2.2860    4.2597   -1.4507 C   0  0  0  0  0  4           0  0  0
  1 10  1  0     0  0
  1 29  1  0     0  0
  2 11  1  0     0  0
  2 30  1  0     0  0
  3 28  2  0     0  0
  4 12  2  0     0  0
  4 16  1  0     0  0
  5 12  1  0     0  0
  5 17  2  0     0  0
  6 13  1  0     0  0
  6 14  2  0     0  0
  7 13  2  0     0  0
  7 15  1  0     0  0
  8 14  1  0     0  0
  8 18  1  0     0  0
  9 12  1  0     0  0
  9 28  1  0     0  0
 10 11  1  0     0  0
 10 21  2  0     0  0
 11 22  2  0     0  0
 14 19  1  0     0  0
 15 19  2  0     0  0
 15 21  1  0     0  0
 16 18  2  0     0  0
 17 18  1  0     0  0
 19 22  1  0     0  0
 20 23  2  0     0  0
 20 24  1  0     0  0
 20 28  1  0     0  0
 23 25  1  0     0  0
 24 26  2  0     0  0
 25 27  2  0     0  0
 26 27  1  0     0  0
M  END
> <standard_type>
pIC50

> <# Confs.>
25

> <canonical_smiles>
O=C(NC1=NC=C(NC2=NC=NC3=C2C=C(OC)C(OC)=C3)C=N1)C4=CC=CC=C4

> <standard_relation>
=

> <Publication_ID>
nan

> <predicted_activity_value>
7.721246399047171

> <actual_activity_value>
7.6020599913279625

> <Compound>
11

> <standard_units>
nM

> hash
7075920698246586756

$$$$
11_
XXILIB    08252103493D 0   0.00000     0.00000

 30 33  0     1  0            999 V2000
   -6.0463    2.1917    0.6426 O   0  0  0  0  0  2           0  0  0
   -4.5027    2.2968   -1.4514 O   0  0  0  0  0  2           0  0  0
    6.0078   -1.0523   -1.8334 O   0  0  0  0  0  2           0  0  0
    3.5294   -0.5646   -0.9836 N   0  0  0  0  0  3           0  0  0
    3.4641    0.6340    1.0807 N   0  0  0  0  0  3           0  0  0
   -0.5352   -0.5943    2.2426 N   0  0  0  0  0  3           0  0  0
   -2.6702   -0.0682    3.1970 N   0  0  0  0  0  3           0  0  0
    0.0000    0.0000    0.0000 N   0  0  0  0  0  3           0  0  0
    5.5367    0.0854    0.1266 N   0  0  0  0  0  3           0  0  0
   -4.8031    1.6434    0.7828 C   0  0  0  0  0  4           0  0  0
   -3.9735    1.7016   -0.3417 C   0  0  0  0  0  4           0  0  0
    4.1270    0.0448    0.0637 C   0  0  0  0  0  4           0  0  0
   -1.4346   -0.5872    3.2356 C   0  0  0  0  0  4           0  0  0
   -0.9059   -0.0000    1.0820 C   0  0  0  0  0  4           0  0  0
   -3.0494    0.4975    2.0435 C   0  0  0  0  0  4           0  0  0
    2.1767   -0.5693   -0.9860 C   0  0  0  0  0  4           0  0  0
    2.1142    0.5950    1.0188 C   0  0  0  0  0  4           0  0  0
    1.3912   -0.0000   -0.0000 C   0  0  0  0  0  4           0  0  0
   -2.1996    0.5594    0.9228 C   0  0  0  0  0  4           0  0  0
    7.8286   -0.3087   -0.5646 C   0  0  0  0  0  4           0  0  0
   -4.3301    1.0388    1.9547 C   0  0  0  0  0  4           0  0  0
   -2.6846    1.1612   -0.2668 C   0  0  0  0  0  4           0  0  0
    8.7214   -1.2368   -1.1026 C   0  0  0  0  0  4           0  0  0
    8.2777    0.7734    0.1938 C   0  0  0  0  0  4           0  0  0
   10.0866   -1.0799   -0.8676 C   0  0  0  0  0  4           0  0  0
    9.6450    0.9209    0.4224 C   0  0  0  0  0  4           0  0  0
   10.5478   -0.0040   -0.1064 C   0  0  0  0  0  4           0  0  0
    6.3764   -0.4623   -0.8200 C   0  0  0  0  0  4           0  0  0
   -6.8785    2.1239    1.7975 C   0  0  0  0  0  4           0  0  0
   -4.2856    3.7016   -1.5543 C   0  0  0  0  0  4           0  0  0
  1 10  1  0     0  0
  1 29  1  0     0  0
  2 11  1  0     0  0
  2 30  1  0     0  0
  3 28  2  0     0  0
  4 12  2  0     0  0
  4 16  1  0     0  0
  5 12  1  0     0  0
  5 17  2  0     0  0
  6 13  1  0     0  0
  6 14  2  0     0  0
  7 13  2  0     0  0
  7 15  1  0     0  0
  8 14  1  0     0  0
  8 18  1  0     0  0
  9 12  1  0     0  0
  9 28  1  0     0  0
 10 11  1  0     0  0
 10 21  2  0     0  0
 11 22  2  0     0  0
 14 19  1  0     0  0
 15 19  2  0     0  0
 15 21  1  0     0  0
 16 18  2  0     0  0
 17 18  1  0     0  0
 19 22  1  0     0  0
 20 23  2  0     0  0
 20 24  1  0     0  0
 20 28  1  0     0  0
 23 25  1  0     0  0
 24 26  2  0     0  0
 25 27  2  0     0  0
 26 27  1  0     0  0
M  END
> <standard_type>
pIC50

> <# Confs.>
25

> <canonical_smiles>
O=C(NC1=NC=C(NC2=NC=NC3=C2C=C(OC)C(OC)=C3)C=N1)C4=CC=CC=C4

> <standard_relation>
=

> <Publication_ID>
nan

> <predicted_activity_value>
7.721246399047171

> <actual_activity_value>
7.6020599913279625

> <Compound>
11

> <standard_units>
nM

> hash
7075920698246586756

$$$$
11_
XXILIB    08252103493D 0   0.00000     0.00000

 30 33  0     1  0            999 V2000
   -6.4526   -0.2137    0.3023 O   0  0  0  0  0  2           0  0  0
   -4.9329   -0.2030   -1.8115 O   0  0  0  0  0  2           0  0  0
    6.0078    1.0523    1.8334 O   0  0  0  0  0  2           0  0  0
    3.5294    0.5646    0.9836 N   0  0  0  0  0  3           0  0  0
    3.4641   -0.6340   -1.0807 N   0  0  0  0  0  3           0  0  0
   -0.4131    0.0000    2.3449 N   0  0  0  0  0  3           0  0  0
   -2.6446   -0.0566    3.2185 N   0  0  0  0  0  3           0  0  0
    0.0000    0.0000   -0.0000 N   0  0  0  0  0  3           0  0  0
    5.5367   -0.0854   -0.1266 N   0  0  0  0  0  3           0  0  0
   -5.1065   -0.1668    0.5288 C   0  0  0  0  0  4           0  0  0
   -4.2904   -0.1593   -0.6070 C   0  0  0  0  0  4           0  0  0
    4.1270   -0.0448   -0.0637 C   0  0  0  0  0  4           0  0  0
   -1.3098   -0.0200    3.3400 C   0  0  0  0  0  4           0  0  0
   -0.9059    0.0000    1.0820 C   0  0  0  0  0  4           0  0  0
   -3.1347   -0.0823    1.9721 C   0  0  0  0  0  4           0  0  0
    2.1767    0.5693    0.9860 C   0  0  0  0  0  4           0  0  0
    2.1142   -0.5950   -1.0188 C   0  0  0  0  0  4           0  0  0
    1.3912    0.0000    0.0000 C   0  0  0  0  0  4           0  0  0
   -2.3016   -0.0626    0.8374 C   0  0  0  0  0  4           0  0  0
    7.8286    0.3087    0.5646 C   0  0  0  0  0  4           0  0  0
   -4.5162   -0.1330    1.7989 C   0  0  0  0  0  4           0  0  0
   -2.9008   -0.1092   -0.4477 C   0  0  0  0  0  4           0  0  0
    8.7214    1.2368    1.1026 C   0  0  0  0  0  4           0  0  0
    8.2777   -0.7734   -0.1938 C   0  0  0  0  0  4           0  0  0
   10.0866    1.0799    0.8676 C   0  0  0  0  0  4           0  0  0
    9.6450   -0.9209   -0.4224 C   0  0  0  0  0  4           0  0  0
   10.5478    0.0040    0.1064 C   0  0  0  0  0  4           0  0  0
    6.3764    0.4623    0.8200 C   0  0  0  0  0  4           0  0  0
   -7.2695   -0.2207    1.4702 C   0  0  0  0  0  4           0  0  0
   -4.0855   -0.1946   -2.9574 C   0  0  0  0  0  4           0  0  0
  1 10  1  0     0  0
  1 29  1  0     0  0
  2 11  1  0     0  0
  2 30  1  0     0  0
  3 28  2  0     0  0
  4 12  2  0     0  0
  4 16  1  0     0  0
  5 12  1  0     0  0
  5 17  2  0     0  0
  6 13  1  0     0  0
  6 14  2  0     0  0
  7 13  2  0     0  0
  7 15  1  0     0  0
  8 14  1  0     0  0
  8 18  1  0     0  0
  9 12  1  0     0  0
  9 28  1  0     0  0
 10 11  1  0     0  0
 10 21  2  0     0  0
 11 22  2  0     0  0
 14 19  1  0     0  0
 15 19  2  0     0  0
 15 21  1  0     0  0
 16 18  2  0     0  0
 17 18  1  0     0  0
 19 22  1  0     0  0
 20 23  2  0     0  0
 20 24  1  0     0  0
 20 28  1  0     0  0
 23 25  1  0     0  0
 24 26  2  0     0  0
 25 27  2  0     0  0
 26 27  1  0     0  0
M  END
> <standard_type>
pIC50

> <# Confs.>
25

> <canonical_smiles>
O=C(NC1=NC=C(NC2=NC=NC3=C2C=C(OC)C(OC)=C3)C=N1)C4=CC=CC=C4

> <standard_relation>
=

> <Publication_ID>
nan

> <predicted_activity_value>
7.721246399047171

> <actual_activity_value>
7.6020599913279625

> <Compound>
11

> <standard_units>
nM

> hash
7075920698246586756

$$$$
11_
XXILIB    08252103493D 0   0.00000     0.00000

 30 33  0     1  0            999 V2000
   -4.4884   -4.2234    1.9469 O   0  0  0  0  0  2           0  0  0
   -2.9023   -4.3841   -0.1114 O   0  0  0  0  0  2           0  0  0
    6.0078   -0.0054    2.1139 O   0  0  0  0  0  2           0  0  0
    3.5294   -0.0028    1.1341 N   0  0  0  0  0  3           0  0  0
    3.4641   -0.0087   -1.2529 N   0  0  0  0  0  3           0  0  0
   -0.8687    1.0294    1.9633 N   0  0  0  0  0  3           0  0  0
   -2.6218    0.0050    3.2376 N   0  0  0  0  0  3           0  0  0
    0.0000    0.0000    0.0000 N   0  0  0  0  0  3           0  0  0
    5.5367   -0.0106   -0.1523 N   0  0  0  0  0  3           0  0  0
   -3.6248   -3.1802    1.7694 C   0  0  0  0  0  4           0  0  0
   -2.7741   -3.2660    0.6626 C   0  0  0  0  0  4           0  0  0
    4.1270   -0.0070   -0.0776 C   0  0  0  0  0  4           0  0  0
   -1.7336    0.9772    2.9852 C   0  0  0  0  0  4           0  0  0
   -0.9059    0.0000    1.0820 C   0  0  0  0  0  4           0  0  0
   -2.6439   -1.0262    2.3829 C   0  0  0  0  0  4           0  0  0
    2.1767   -0.0000    1.1386 C   0  0  0  0  0  4           0  0  0
    2.1142   -0.0059   -1.1798 C   0  0  0  0  0  4           0  0  0
    1.3912    0.0000    0.0000 C   0  0  0  0  0  4           0  0  0
   -1.7896   -1.0941    1.2661 C   0  0  0  0  0  4           0  0  0
    7.8286   -0.0150    0.6433 C   0  0  0  0  0  4           0  0  0
   -3.5431   -2.0653    2.6136 C   0  0  0  0  0  4           0  0  0
   -1.8654   -2.2297    0.4191 C   0  0  0  0  0  4           0  0  0
    8.2860    0.5490   -0.5486 C   0  0  0  0  0  4           0  0  0
    8.7137   -0.5672    1.5702 C   0  0  0  0  0  4           0  0  0
    9.6541    0.5504   -0.8173 C   0  0  0  0  0  4           0  0  0
   10.0797   -0.5603    1.2916 C   0  0  0  0  0  4           0  0  0
   10.5492   -0.0035    0.1001 C   0  0  0  0  0  4           0  0  0
    6.3764   -0.0096    0.9413 C   0  0  0  0  0  4           0  0  0
   -5.3479   -4.1201    3.0790 C   0  0  0  0  0  4           0  0  0
   -2.0276   -4.4543   -1.2344 C   0  0  0  0  0  4           0  0  0
  1 10  1  0     0  0
  1 29  1  0     0  0
  2 11  1  0     0  0
  2 30  1  0     0  0
  3 28  2  0     0  0
  4 12  2  0     0  0
  4 16  1  0     0  0
  5 12  1  0     0  0
  5 17  2  0     0  0
  6 13  1  0     0  0
  6 14  2  0     0  0
  7 13  2  0     0  0
  7 15  1  0     0  0
  8 14  1  0     0  0
  8 18  1  0     0  0
  9 12  1  0     0  0
  9 28  1  0     0  0
 10 11  1  0     0  0
 10 21  2  0     0  0
 11 22  2  0     0  0
 14 19  1  0     0  0
 15 19  2  0     0  0
 15 21  1  0     0  0
 16 18  2  0     0  0
 17 18  1  0     0  0
 19 22  1  0     0  0
 20 23  2  0     0  0
 20 24  1  0     0  0
 20 28  1  0     0  0
 23 25  1  0     0  0
 24 26  2  0     0  0
 25 27  2  0     0  0
 26 27  1  0     0  0
M  END
> <standard_type>
pIC50

> <# Confs.>
25

> <canonical_smiles>
O=C(NC1=NC=C(NC2=NC=NC3=C2C=C(OC)C(OC)=C3)C=N1)C4=CC=CC=C4

> <standard_relation>
=

> <Publication_ID>
nan

> <predicted_activity_value>
7.721246399047171

> <actual_activity_value>
7.6020599913279625

> <Compound>
11

> <standard_units>
nM

> hash
7075920698246586756

$$$$
11_
XXILIB    08252103493D 0   0.00000     0.00000

 30 33  0     1  0            999 V2000
   -6.4526   -0.2137    0.3023 O   0  0  0  0  0  2           0  0  0
   -4.9329   -0.2030   -1.8115 O   0  0  0  0  0  2           0  0  0
    6.0078   -0.0054    2.1139 O   0  0  0  0  0  2           0  0  0
    3.5294   -0.0028    1.1341 N   0  0  0  0  0  3           0  0  0
    3.4641   -0.0087   -1.2529 N   0  0  0  0  0  3           0  0  0
   -0.4131    0.0000    2.3449 N   0  0  0  0  0  3           0  0  0
   -2.6446   -0.0566    3.2185 N   0  0  0  0  0  3           0  0  0
    0.0000    0.0000   -0.0000 N   0  0  0  0  0  3           0  0  0
    5.5367   -0.0106   -0.1523 N   0  0  0  0  0  3           0  0  0
   -5.1065   -0.1668    0.5288 C   0  0  0  0  0  4           0  0  0
   -4.2904   -0.1593   -0.6070 C   0  0  0  0  0  4           0  0  0
    4.1270   -0.0070   -0.0776 C   0  0  0  0  0  4           0  0  0
   -1.3098   -0.0200    3.3400 C   0  0  0  0  0  4           0  0  0
   -0.9059    0.0000    1.0820 C   0  0  0  0  0  4           0  0  0
   -3.1347   -0.0823    1.9721 C   0  0  0  0  0  4           0  0  0
    2.1767   -0.0000    1.1386 C   0  0  0  0  0  4           0  0  0
    2.1142   -0.0059   -1.1798 C   0  0  0  0  0  4           0  0  0
    1.3912    0.0000    0.0000 C   0  0  0  0  0  4           0  0  0
   -2.3016   -0.0626    0.8374 C   0  0  0  0  0  4           0  0  0
    7.8286   -0.0150    0.6433 C   0  0  0  0  0  4           0  0  0
   -4.5162   -0.1330    1.7989 C   0  0  0  0  0  4           0  0  0
   -2.9008   -0.1092   -0.4477 C   0  0  0  0  0  4           0  0  0
    8.2860    0.5490   -0.5486 C   0  0  0  0  0  4           0  0  0
    8.7137   -0.5672    1.5702 C   0  0  0  0  0  4           0  0  0
    9.6541    0.5504   -0.8173 C   0  0  0  0  0  4           0  0  0
   10.0797   -0.5603    1.2916 C   0  0  0  0  0  4           0  0  0
   10.5492   -0.0035    0.1001 C   0  0  0  0  0  4           0  0  0
    6.3764   -0.0096    0.9413 C   0  0  0  0  0  4           0  0  0
   -7.2695   -0.2207    1.4702 C   0  0  0  0  0  4           0  0  0
   -4.0855   -0.1946   -2.9574 C   0  0  0  0  0  4           0  0  0
  1 10  1  0     0  0
  1 29  1  0     0  0
  2 11  1  0     0  0
  2 30  1  0     0  0
  3 28  2  0     0  0
  4 12  2  0     0  0
  4 16  1  0     0  0
  5 12  1  0     0  0
  5 17  2  0     0  0
  6 13  1  0     0  0
  6 14  2  0     0  0
  7 13  2  0     0  0
  7 15  1  0     0  0
  8 14  1  0     0  0
  8 18  1  0     0  0
  9 12  1  0     0  0
  9 28  1  0     0  0
 10 11  1  0     0  0
 10 21  2  0     0  0
 11 22  2  0     0  0
 14 19  1  0     0  0
 15 19  2  0     0  0
 15 21  1  0     0  0
 16 18  2  0     0  0
 17 18  1  0     0  0
 19 22  1  0     0  0
 20 23  2  0     0  0
 20 24  1  0     0  0
 20 28  1  0     0  0
 23 25  1  0     0  0
 24 26  2  0     0  0
 25 27  2  0     0  0
 26 27  1  0     0  0
M  END
> <standard_type>
pIC50

> <# Confs.>
25

> <canonical_smiles>
O=C(NC1=NC=C(NC2=NC=NC3=C2C=C(OC)C(OC)=C3)C=N1)C4=CC=CC=C4

> <standard_relation>
=

> <Publication_ID>
nan

> <predicted_activity_value>
7.721246399047171

> <actual_activity_value>
7.6020599913279625

> <Compound>
11

> <standard_units>
nM

> hash
7075920698246586756

$$$$
11_
XXILIB    08252103493D 0   0.00000     0.00000

 30 33  0     1  0            999 V2000
   -4.7722    4.0097    1.7093 O   0  0  0  0  0  2           0  0  0
   -3.1718    4.1812   -0.3371 O   0  0  0  0  0  2           0  0  0
    6.0078   -0.0054    2.1139 O   0  0  0  0  0  2           0  0  0
    3.5294   -0.0028    1.1341 N   0  0  0  0  0  3           0  0  0
    3.4641   -0.0087   -1.2529 N   0  0  0  0  0  3           0  0  0
   -0.8687   -1.0294    1.9633 N   0  0  0  0  0  3           0  0  0
   -2.6969   -0.0615    3.1747 N   0  0  0  0  0  3           0  0  0
    0.0000    0.0000    0.0000 N   0  0  0  0  0  3           0  0  0
    5.5367   -0.0106   -0.1523 N   0  0  0  0  0  3           0  0  0
   -3.8464    3.0133    1.5838 C   0  0  0  0  0  4           0  0  0
   -2.9856    3.1067    0.4854 C   0  0  0  0  0  4           0  0  0
    4.1270   -0.0070   -0.0776 C   0  0  0  0  0  4           0  0  0
   -1.7601   -0.9971    2.9631 C   0  0  0  0  0  4           0  0  0
   -0.9059    0.0000    1.0820 C   0  0  0  0  0  4           0  0  0
   -2.7532    0.9439    2.2914 C   0  0  0  0  0  4           0  0  0
    2.1767   -0.0000    1.1386 C   0  0  0  0  0  4           0  0  0
    2.1142   -0.0059   -1.1798 C   0  0  0  0  0  4           0  0  0
    1.3912    0.0000    0.0000 C   0  0  0  0  0  4           0  0  0
   -1.8727    1.0315    1.1965 C   0  0  0  0  0  4           0  0  0
    7.8286   -0.0150    0.6433 C   0  0  0  0  0  4           0  0  0
   -3.7197    1.9323    2.4658 C   0  0  0  0  0  4           0  0  0
   -2.0104    2.1205    0.2977 C   0  0  0  0  0  4           0  0  0
    8.2860    0.5490   -0.5486 C   0  0  0  0  0  4           0  0  0
    8.7137   -0.5672    1.5702 C   0  0  0  0  0  4           0  0  0
    9.6541    0.5504   -0.8173 C   0  0  0  0  0  4           0  0  0
   10.0797   -0.5603    1.2916 C   0  0  0  0  0  4           0  0  0
   10.5492   -0.0035    0.1001 C   0  0  0  0  0  4           0  0  0
    6.3764   -0.0096    0.9413 C   0  0  0  0  0  4           0  0  0
   -5.6410    3.8994    2.8336 C   0  0  0  0  0  4           0  0  0
   -2.2860    4.2597   -1.4507 C   0  0  0  0  0  4           0  0  0
  1 10  1  0     0  0
  1 29  1  0     0  0
  2 11  1  0     0  0
  2 30  1  0     0  0
  3 28  2  0     0  0
  4 12  2  0     0  0
  4 16  1  0     0  0
  5 12  1  0     0  0
  5 17  2  0     0  0
  6 13  1  0     0  0
  6 14  2  0     0  0
  7 13  2  0     0  0
  7 15  1  0     0  0
  8 14  1  0     0  0
  8 18  1  0     0  0
  9 12  1  0     0  0
  9 28  1  0     0  0
 10 11  1  0     0  0
 10 21  2  0     0  0
 11 22  2  0     0  0
 14 19  1  0     0  0
 15 19  2  0     0  0
 15 21  1  0     0  0
 16 18  2  0     0  0
 17 18  1  0     0  0
 19 22  1  0     0  0
 20 23  2  0     0  0
 20 24  1  0     0  0
 20 28  1  0     0  0
 23 25  1  0     0  0
 24 26  2  0     0  0
 25 27  2  0     0  0
 26 27  1  0     0  0
M  END
> <standard_type>
pIC50

> <# Confs.>
25

> <canonical_smiles>
O=C(NC1=NC=C(NC2=NC=NC3=C2C=C(OC)C(OC)=C3)C=N1)C4=CC=CC=C4

> <standard_relation>
=

> <Publication_ID>
nan

> <predicted_activity_value>
7.721246399047171

> <actual_activity_value>
7.6020599913279625

> <Compound>
11

> <standard_units>
nM

> hash
7075920698246586756

$$$$
11_
XXILIB    08252103493D 0   0.00000     0.00000

 30 33  0     1  0            999 V2000
   -6.0463    2.1917    0.6426 O   0  0  0  0  0  2           0  0  0
   -4.5027    2.2968   -1.4514 O   0  0  0  0  0  2           0  0  0
    6.0078    1.0616   -1.8280 O   0  0  0  0  0  2           0  0  0
    3.5294    0.5695   -0.9808 N   0  0  0  0  0  3           0  0  0
    3.4641   -0.6189    1.0894 N   0  0  0  0  0  3           0  0  0
   -0.5352   -0.5943    2.2426 N   0  0  0  0  0  3           0  0  0
   -2.6702   -0.0682    3.1970 N   0  0  0  0  0  3           0  0  0
    0.0000    0.0000    0.0000 N   0  0  0  0  0  3           0  0  0
    5.5367   -0.0670    0.1373 N   0  0  0  0  0  3           0  0  0
   -4.8031    1.6434    0.7828 C   0  0  0  0  0  4           0  0  0
   -3.9735    1.7016   -0.3417 C   0  0  0  0  0  4           0  0  0
    4.1270   -0.0327    0.0707 C   0  0  0  0  0  4           0  0  0
   -1.4346   -0.5872    3.2356 C   0  0  0  0  0  4           0  0  0
   -0.9059   -0.0000    1.0820 C   0  0  0  0  0  4           0  0  0
   -3.0494    0.4975    2.0435 C   0  0  0  0  0  4           0  0  0
    2.1767    0.5693   -0.9860 C   0  0  0  0  0  4           0  0  0
    2.1142   -0.5849    1.0247 C   0  0  0  0  0  4           0  0  0
    1.3912    0.0000   -0.0000 C   0  0  0  0  0  4           0  0  0
   -2.1996    0.5594    0.9228 C   0  0  0  0  0  4           0  0  0
    7.8286    0.3346   -0.5496 C   0  0  0  0  0  4           0  0  0
   -4.3301    1.0388    1.9547 C   0  0  0  0  0  4           0  0  0
   -2.6846    1.1612   -0.2668 C   0  0  0  0  0  4           0  0  0
    8.2860   -0.7497    0.2006 C   0  0  0  0  0  4           0  0  0
    8.7137    1.2763   -1.0762 C   0  0  0  0  0  4           0  0  0
    9.6541   -0.8853    0.4326 C   0  0  0  0  0  4           0  0  0
   10.0797    1.1310   -0.8384 C   0  0  0  0  0  4           0  0  0
   10.5492    0.0531   -0.0850 C   0  0  0  0  0  4           0  0  0
    6.3764    0.4789   -0.8104 C   0  0  0  0  0  4           0  0  0
   -6.8785    2.1239    1.7975 C   0  0  0  0  0  4           0  0  0
   -3.6433    2.3470   -2.5871 C   0  0  0  0  0  4           0  0  0
  1 10  1  0     0  0
  1 29  1  0     0  0
  2 11  1  0     0  0
  2 30  1  0     0  0
  3 28  2  0     0  0
  4 12  2  0     0  0
  4 16  1  0     0  0
  5 12  1  0     0  0
  5 17  2  0     0  0
  6 13  1  0     0  0
  6 14  2  0     0  0
  7 13  2  0     0  0
  7 15  1  0     0  0
  8 14  1  0     0  0
  8 18  1  0     0  0
  9 12  1  0     0  0
  9 28  1  0     0  0
 10 11  1  0     0  0
 10 21  2  0     0  0
 11 22  2  0     0  0
 14 19  1  0     0  0
 15 19  2  0     0  0
 15 21  1  0     0  0
 16 18  2  0     0  0
 17 18  1  0     0  0
 19 22  1  0     0  0
 20 23  2  0     0  0
 20 24  1  0     0  0
 20 28  1  0     0  0
 23 25  1  0     0  0
 24 26  2  0     0  0
 25 27  2  0     0  0
 26 27  1  0     0  0
M  END
> <standard_type>
pIC50

> <# Confs.>
25

> <canonical_smiles>
O=C(NC1=NC=C(NC2=NC=NC3=C2C=C(OC)C(OC)=C3)C=N1)C4=CC=CC=C4

> <standard_relation>
=

> <Publication_ID>
nan

> <predicted_activity_value>
7.721246399047171

> <actual_activity_value>
7.6020599913279625

> <Compound>
11

> <standard_units>
nM

> hash
7075920698246586756

$$$$
11_
XXILIB    08252103493D 0   0.00000     0.00000

 30 33  0     1  0            999 V2000
   -6.4526   -0.2137    0.3023 O   0  0  0  0  0  2           0  0  0
   -4.9329   -0.2030   -1.8115 O   0  0  0  0  0  2           0  0  0
    6.0078    1.0616   -1.8280 O   0  0  0  0  0  2           0  0  0
    3.5294    0.5695   -0.9808 N   0  0  0  0  0  3           0  0  0
    3.4641   -0.6189    1.0894 N   0  0  0  0  0  3           0  0  0
   -0.4131    0.0000    2.3449 N   0  0  0  0  0  3           0  0  0
   -2.6446   -0.0566    3.2185 N   0  0  0  0  0  3           0  0  0
    0.0000    0.0000   -0.0000 N   0  0  0  0  0  3           0  0  0
    5.5367   -0.0670    0.1373 N   0  0  0  0  0  3           0  0  0
   -5.1065   -0.1668    0.5288 C   0  0  0  0  0  4           0  0  0
   -4.2904   -0.1593   -0.6070 C   0  0  0  0  0  4           0  0  0
    4.1270   -0.0327    0.0707 C   0  0  0  0  0  4           0  0  0
   -1.3098   -0.0200    3.3400 C   0  0  0  0  0  4           0  0  0
   -0.9059    0.0000    1.0820 C   0  0  0  0  0  4           0  0  0
   -3.1347   -0.0823    1.9721 C   0  0  0  0  0  4           0  0  0
    2.1767    0.5693   -0.9860 C   0  0  0  0  0  4           0  0  0
    2.1142   -0.5849    1.0247 C   0  0  0  0  0  4           0  0  0
    1.3912    0.0000   -0.0000 C   0  0  0  0  0  4           0  0  0
   -2.3016   -0.0626    0.8374 C   0  0  0  0  0  4           0  0  0
    7.8286    0.3346   -0.5496 C   0  0  0  0  0  4           0  0  0
   -4.5162   -0.1330    1.7989 C   0  0  0  0  0  4           0  0  0
   -2.9008   -0.1092   -0.4477 C   0  0  0  0  0  4           0  0  0
    8.7214    0.3365   -1.6224 C   0  0  0  0  0  4           0  0  0
    8.2777    0.2188    0.7666 C   0  0  0  0  0  4           0  0  0
   10.0866    0.2114   -1.3690 C   0  0  0  0  0  4           0  0  0
    9.6450    0.0946    1.0087 C   0  0  0  0  0  4           0  0  0
   10.5478    0.0901   -0.0566 C   0  0  0  0  0  4           0  0  0
    6.3764    0.4789   -0.8104 C   0  0  0  0  0  4           0  0  0
   -7.2695   -0.2207    1.4702 C   0  0  0  0  0  4           0  0  0
   -4.0855   -0.1946   -2.9574 C   0  0  0  0  0  4           0  0  0
  1 10  1  0     0  0
  1 29  1  0     0  0
  2 11  1  0     0  0
  2 30  1  0     0  0
  3 28  2  0     0  0
  4 12  2  0     0  0
  4 16  1  0     0  0
  5 12  1  0     0  0
  5 17  2  0     0  0
  6 13  1  0     0  0
  6 14  2  0     0  0
  7 13  2  0     0  0
  7 15  1  0     0  0
  8 14  1  0     0  0
  8 18  1  0     0  0
  9 12  1  0     0  0
  9 28  1  0     0  0
 10 11  1  0     0  0
 10 21  2  0     0  0
 11 22  2  0     0  0
 14 19  1  0     0  0
 15 19  2  0     0  0
 15 21  1  0     0  0
 16 18  2  0     0  0
 17 18  1  0     0  0
 19 22  1  0     0  0
 20 23  2  0     0  0
 20 24  1  0     0  0
 20 28  1  0     0  0
 23 25  1  0     0  0
 24 26  2  0     0  0
 25 27  2  0     0  0
 26 27  1  0     0  0
M  END
> <standard_type>
pIC50

> <# Confs.>
25

> <canonical_smiles>
O=C(NC1=NC=C(NC2=NC=NC3=C2C=C(OC)C(OC)=C3)C=N1)C4=CC=CC=C4

> <standard_relation>
=

> <Publication_ID>
nan

> <predicted_activity_value>
7.721246399047171

> <actual_activity_value>
7.6020599913279625

> <Compound>
11

> <standard_units>
nM

> hash
7075920698246586756

$$$$
11_
XXILIB    08252103493D 0   0.00000     0.00000

 30 33  0     1  0            999 V2000
   -5.8824   -2.5618    0.7797 O   0  0  0  0  0  2           0  0  0
   -4.3471   -2.6484   -1.3211 O   0  0  0  0  0  2           0  0  0
    6.0078   -1.0523   -1.8334 O   0  0  0  0  0  2           0  0  0
    3.5294   -0.5646   -0.9836 N   0  0  0  0  0  3           0  0  0
    3.4641    0.6340    1.0807 N   0  0  0  0  0  3           0  0  0
   -0.5352    0.5943    2.2426 N   0  0  0  0  0  3           0  0  0
   -2.6269   -0.0298    3.2333 N   0  0  0  0  0  3           0  0  0
    0.0000    0.0000   -0.0000 N   0  0  0  0  0  3           0  0  0
    5.5367    0.0854    0.1266 N   0  0  0  0  0  3           0  0  0
   -4.6752   -1.9324    0.8899 C   0  0  0  0  0  4           0  0  0
   -3.8513   -1.9776   -0.2394 C   0  0  0  0  0  4           0  0  0
    4.1270    0.0448    0.0637 C   0  0  0  0  0  4           0  0  0
   -1.4193    0.5526    3.2484 C   0  0  0  0  0  4           0  0  0
   -0.9059    0.0000    1.0820 C   0  0  0  0  0  4           0  0  0
   -2.9863   -0.6400    2.0963 C   0  0  0  0  0  4           0  0  0
    2.1767   -0.5693   -0.9860 C   0  0  0  0  0  4           0  0  0
    2.1142    0.5950    1.0188 C   0  0  0  0  0  4           0  0  0
    1.3912   -0.0000   -0.0000 C   0  0  0  0  0  4           0  0  0
   -2.1515   -0.6678    0.9630 C   0  0  0  0  0  4           0  0  0
    7.8286   -0.3087   -0.5646 C   0  0  0  0  0  4           0  0  0
   -4.2282   -1.2692    2.0401 C   0  0  0  0  0  4           0  0  0
   -2.6009   -1.3503   -0.1967 C   0  0  0  0  0  4           0  0  0
    8.7214   -1.2368   -1.1026 C   0  0  0  0  0  4           0  0  0
    8.2777    0.7734    0.1938 C   0  0  0  0  0  4           0  0  0
   10.0866   -1.0799   -0.8676 C   0  0  0  0  0  4           0  0  0
    9.6450    0.9209    0.4224 C   0  0  0  0  0  4           0  0  0
   10.5478   -0.0040   -0.1064 C   0  0  0  0  0  4           0  0  0
    6.3764   -0.4623   -0.8200 C   0  0  0  0  0  4           0  0  0
   -6.7093   -2.5061    1.9392 C   0  0  0  0  0  4           0  0  0
   -3.4941   -2.6840   -2.4622 C   0  0  0  0  0  4           0  0  0
  1 10  1  0     0  0
  1 29  1  0     0  0
  2 11  1  0     0  0
  2 30  1  0     0  0
  3 28  2  0     0  0
  4 12  2  0     0  0
  4 16  1  0     0  0
  5 12  1  0     0  0
  5 17  2  0     0  0
  6 13  1  0     0  0
  6 14  2  0     0  0
  7 13  2  0     0  0
  7 15  1  0     0  0
  8 14  1  0     0  0
  8 18  1  0     0  0
  9 12  1  0     0  0
  9 28  1  0     0  0
 10 11  1  0     0  0
 10 21  2  0     0  0
 11 22  2  0     0  0
 14 19  1  0     0  0
 15 19  2  0     0  0
 15 21  1  0     0  0
 16 18  2  0     0  0
 17 18  1  0     0  0
 19 22  1  0     0  0
 20 23  2  0     0  0
 20 24  1  0     0  0
 20 28  1  0     0  0
 23 25  1  0     0  0
 24 26  2  0     0  0
 25 27  2  0     0  0
 26 27  1  0     0  0
M  END
> <standard_type>
pIC50

> <# Confs.>
25

> <canonical_smiles>
O=C(NC1=NC=C(NC2=NC=NC3=C2C=C(OC)C(OC)=C3)C=N1)C4=CC=CC=C4

> <standard_relation>
=

> <Publication_ID>
nan

> <predicted_activity_value>
7.721246399047171

> <actual_activity_value>
7.6020599913279625

> <Compound>
11

> <standard_units>
nM

> hash
7075920698246586756

$$$$
11_
XXILIB    08252103493D 0   0.00000     0.00000

 30 33  0     1  0            999 V2000
   -5.8824   -2.5618    0.7797 O   0  0  0  0  0  2           0  0  0
   -4.3471   -2.6484   -1.3211 O   0  0  0  0  0  2           0  0  0
    6.0078   -0.0054    2.1139 O   0  0  0  0  0  2           0  0  0
    3.5294   -0.0028    1.1341 N   0  0  0  0  0  3           0  0  0
    3.4641   -0.0087   -1.2529 N   0  0  0  0  0  3           0  0  0
   -0.5352    0.5943    2.2426 N   0  0  0  0  0  3           0  0  0
   -2.6269   -0.0298    3.2333 N   0  0  0  0  0  3           0  0  0
    0.0000    0.0000   -0.0000 N   0  0  0  0  0  3           0  0  0
    5.5367   -0.0106   -0.1523 N   0  0  0  0  0  3           0  0  0
   -4.6752   -1.9324    0.8899 C   0  0  0  0  0  4           0  0  0
   -3.8513   -1.9776   -0.2394 C   0  0  0  0  0  4           0  0  0
    4.1270   -0.0070   -0.0776 C   0  0  0  0  0  4           0  0  0
   -1.4193    0.5526    3.2484 C   0  0  0  0  0  4           0  0  0
   -0.9059    0.0000    1.0820 C   0  0  0  0  0  4           0  0  0
   -2.9863   -0.6400    2.0963 C   0  0  0  0  0  4           0  0  0
    2.1767   -0.0000    1.1386 C   0  0  0  0  0  4           0  0  0
    2.1142   -0.0059   -1.1798 C   0  0  0  0  0  4           0  0  0
    1.3912    0.0000    0.0000 C   0  0  0  0  0  4           0  0  0
   -2.1515   -0.6678    0.9630 C   0  0  0  0  0  4           0  0  0
    7.8286   -0.0150    0.6433 C   0  0  0  0  0  4           0  0  0
   -4.2282   -1.2692    2.0401 C   0  0  0  0  0  4           0  0  0
   -2.6009   -1.3503   -0.1967 C   0  0  0  0  0  4           0  0  0
    8.7214    0.5198    1.5733 C   0  0  0  0  0  4           0  0  0
    8.2777   -0.5728   -0.5545 C   0  0  0  0  0  4           0  0  0
   10.0866    0.5014    1.2913 C   0  0  0  0  0  4           0  0  0
    9.6450   -0.5863   -0.8263 C   0  0  0  0  0  4           0  0  0
   10.5478   -0.0497    0.0941 C   0  0  0  0  0  4           0  0  0
    6.3764   -0.0096    0.9413 C   0  0  0  0  0  4           0  0  0
   -6.7093   -2.5061    1.9392 C   0  0  0  0  0  4           0  0  0
   -5.1012   -1.8591   -2.2372 C   0  0  0  0  0  4           0  0  0
  1 10  1  0     0  0
  1 29  1  0     0  0
  2 11  1  0     0  0
  2 30  1  0     0  0
  3 28  2  0     0  0
  4 12  2  0     0  0
  4 16  1  0     0  0
  5 12  1  0     0  0
  5 17  2  0     0  0
  6 13  1  0     0  0
  6 14  2  0     0  0
  7 13  2  0     0  0
  7 15  1  0     0  0
  8 14  1  0     0  0
  8 18  1  0     0  0
  9 12  1  0     0  0
  9 28  1  0     0  0
 10 11  1  0     0  0
 10 21  2  0     0  0
 11 22  2  0     0  0
 14 19  1  0     0  0
 15 19  2  0     0  0
 15 21  1  0     0  0
 16 18  2  0     0  0
 17 18  1  0     0  0
 19 22  1  0     0  0
 20 23  2  0     0  0
 20 24  1  0     0  0
 20 28  1  0     0  0
 23 25  1  0     0  0
 24 26  2  0     0  0
 25 27  2  0     0  0
 26 27  1  0     0  0
M  END
> <standard_type>
pIC50

> <# Confs.>
25

> <canonical_smiles>
O=C(NC1=NC=C(NC2=NC=NC3=C2C=C(OC)C(OC)=C3)C=N1)C4=CC=CC=C4

> <standard_relation>
=

> <Publication_ID>
nan

> <predicted_activity_value>
7.721246399047171

> <actual_activity_value>
7.6020599913279625

> <Compound>
11

> <standard_units>
nM

> hash
7075920698246586756

$$$$
11_
XXILIB    08252103493D 0   0.00000     0.00000

 30 33  0     1  0            999 V2000
   -6.4526   -0.2137    0.3023 O   0  0  0  0  0  2           0  0  0
   -4.9329   -0.2030   -1.8115 O   0  0  0  0  0  2           0  0  0
    6.0078   -1.0523   -1.8334 O   0  0  0  0  0  2           0  0  0
    3.5294   -0.5646   -0.9836 N   0  0  0  0  0  3           0  0  0
    3.4641    0.6340    1.0807 N   0  0  0  0  0  3           0  0  0
   -0.4131    0.0000    2.3449 N   0  0  0  0  0  3           0  0  0
   -2.6446   -0.0566    3.2185 N   0  0  0  0  0  3           0  0  0
    0.0000    0.0000   -0.0000 N   0  0  0  0  0  3           0  0  0
    5.5367    0.0854    0.1266 N   0  0  0  0  0  3           0  0  0
   -5.1065   -0.1668    0.5288 C   0  0  0  0  0  4           0  0  0
   -4.2904   -0.1593   -0.6070 C   0  0  0  0  0  4           0  0  0
    4.1270    0.0448    0.0637 C   0  0  0  0  0  4           0  0  0
   -1.3098   -0.0200    3.3400 C   0  0  0  0  0  4           0  0  0
   -0.9059    0.0000    1.0820 C   0  0  0  0  0  4           0  0  0
   -3.1347   -0.0823    1.9721 C   0  0  0  0  0  4           0  0  0
    2.1767   -0.5693   -0.9860 C   0  0  0  0  0  4           0  0  0
    2.1142    0.5950    1.0188 C   0  0  0  0  0  4           0  0  0
    1.3912   -0.0000   -0.0000 C   0  0  0  0  0  4           0  0  0
   -2.3016   -0.0626    0.8374 C   0  0  0  0  0  4           0  0  0
    7.8286   -0.3087   -0.5646 C   0  0  0  0  0  4           0  0  0
   -4.5162   -0.1330    1.7989 C   0  0  0  0  0  4           0  0  0
   -2.9008   -0.1092   -0.4477 C   0  0  0  0  0  4           0  0  0
    8.7214   -1.2368   -1.1026 C   0  0  0  0  0  4           0  0  0
    8.2777    0.7734    0.1938 C   0  0  0  0  0  4           0  0  0
   10.0866   -1.0799   -0.8676 C   0  0  0  0  0  4           0  0  0
    9.6450    0.9209    0.4224 C   0  0  0  0  0  4           0  0  0
   10.5478   -0.0040   -0.1064 C   0  0  0  0  0  4           0  0  0
    6.3764   -0.4623   -0.8200 C   0  0  0  0  0  4           0  0  0
   -7.2695   -0.2207    1.4702 C   0  0  0  0  0  4           0  0  0
   -5.2646    1.0638   -2.3740 C   0  0  0  0  0  4           0  0  0
  1 10  1  0     0  0
  1 29  1  0     0  0
  2 11  1  0     0  0
  2 30  1  0     0  0
  3 28  2  0     0  0
  4 12  2  0     0  0
  4 16  1  0     0  0
  5 12  1  0     0  0
  5 17  2  0     0  0
  6 13  1  0     0  0
  6 14  2  0     0  0
  7 13  2  0     0  0
  7 15  1  0     0  0
  8 14  1  0     0  0
  8 18  1  0     0  0
  9 12  1  0     0  0
  9 28  1  0     0  0
 10 11  1  0     0  0
 10 21  2  0     0  0
 11 22  2  0     0  0
 14 19  1  0     0  0
 15 19  2  0     0  0
 15 21  1  0     0  0
 16 18  2  0     0  0
 17 18  1  0     0  0
 19 22  1  0     0  0
 20 23  2  0     0  0
 20 24  1  0     0  0
 20 28  1  0     0  0
 23 25  1  0     0  0
 24 26  2  0     0  0
 25 27  2  0     0  0
 26 27  1  0     0  0
M  END
> <standard_type>
pIC50

> <# Confs.>
25

> <canonical_smiles>
O=C(NC1=NC=C(NC2=NC=NC3=C2C=C(OC)C(OC)=C3)C=N1)C4=CC=CC=C4

> <standard_relation>
=

> <Publication_ID>
nan

> <predicted_activity_value>
7.721246399047171

> <actual_activity_value>
7.6020599913279625

> <Compound>
11

> <standard_units>
nM

> hash
7075920698246586756

$$$$
11_
XXILIB    08252103493D 0   0.00000     0.00000

 30 33  0     1  0            999 V2000
   -4.4884   -4.2234    1.9469 O   0  0  0  0  0  2           0  0  0
   -2.9023   -4.3841   -0.1114 O   0  0  0  0  0  2           0  0  0
    6.0078   -1.0523   -1.8334 O   0  0  0  0  0  2           0  0  0
    3.5294   -0.5646   -0.9836 N   0  0  0  0  0  3           0  0  0
    3.4641    0.6340    1.0807 N   0  0  0  0  0  3           0  0  0
   -0.8687    1.0294    1.9633 N   0  0  0  0  0  3           0  0  0
   -2.6218    0.0050    3.2376 N   0  0  0  0  0  3           0  0  0
    0.0000    0.0000    0.0000 N   0  0  0  0  0  3           0  0  0
    5.5367    0.0854    0.1266 N   0  0  0  0  0  3           0  0  0
   -3.6248   -3.1802    1.7694 C   0  0  0  0  0  4           0  0  0
   -2.7741   -3.2660    0.6626 C   0  0  0  0  0  4           0  0  0
    4.1270    0.0448    0.0637 C   0  0  0  0  0  4           0  0  0
   -1.7336    0.9772    2.9852 C   0  0  0  0  0  4           0  0  0
   -0.9059    0.0000    1.0820 C   0  0  0  0  0  4           0  0  0
   -2.6439   -1.0262    2.3829 C   0  0  0  0  0  4           0  0  0
    2.1767   -0.5693   -0.9860 C   0  0  0  0  0  4           0  0  0
    2.1142    0.5950    1.0188 C   0  0  0  0  0  4           0  0  0
    1.3912   -0.0000   -0.0000 C   0  0  0  0  0  4           0  0  0
   -1.7896   -1.0941    1.2661 C   0  0  0  0  0  4           0  0  0
    7.8286   -0.3087   -0.5646 C   0  0  0  0  0  4           0  0  0
   -3.5431   -2.0653    2.6136 C   0  0  0  0  0  4           0  0  0
   -1.8654   -2.2297    0.4191 C   0  0  0  0  0  4           0  0  0
    8.7214   -1.2368   -1.1026 C   0  0  0  0  0  4           0  0  0
    8.2777    0.7734    0.1938 C   0  0  0  0  0  4           0  0  0
   10.0866   -1.0799   -0.8676 C   0  0  0  0  0  4           0  0  0
    9.6450    0.9209    0.4224 C   0  0  0  0  0  4           0  0  0
   10.5478   -0.0040   -0.1064 C   0  0  0  0  0  4           0  0  0
    6.3764   -0.4623   -0.8200 C   0  0  0  0  0  4           0  0  0
   -5.3479   -4.1201    3.0790 C   0  0  0  0  0  4           0  0  0
   -2.0276   -4.4543   -1.2344 C   0  0  0  0  0  4           0  0  0
  1 10  1  0     0  0
  1 29  1  0     0  0
  2 11  1  0     0  0
  2 30  1  0     0  0
  3 28  2  0     0  0
  4 12  2  0     0  0
  4 16  1  0     0  0
  5 12  1  0     0  0
  5 17  2  0     0  0
  6 13  1  0     0  0
  6 14  2  0     0  0
  7 13  2  0     0  0
  7 15  1  0     0  0
  8 14  1  0     0  0
  8 18  1  0     0  0
  9 12  1  0     0  0
  9 28  1  0     0  0
 10 11  1  0     0  0
 10 21  2  0     0  0
 11 22  2  0     0  0
 14 19  1  0     0  0
 15 19  2  0     0  0
 15 21  1  0     0  0
 16 18  2  0     0  0
 17 18  1  0     0  0
 19 22  1  0     0  0
 20 23  2  0     0  0
 20 24  1  0     0  0
 20 28  1  0     0  0
 23 25  1  0     0  0
 24 26  2  0     0  0
 25 27  2  0     0  0
 26 27  1  0     0  0
M  END
> <standard_type>
pIC50

> <# Confs.>
25

> <canonical_smiles>
O=C(NC1=NC=C(NC2=NC=NC3=C2C=C(OC)C(OC)=C3)C=N1)C4=CC=CC=C4

> <standard_relation>
=

> <Publication_ID>
nan

> <predicted_activity_value>
7.721246399047171

> <actual_activity_value>
7.6020599913279625

> <Compound>
11

> <standard_units>
nM

> hash
7075920698246586756

$$$$
11_
XXILIB    08252103493D 0   0.00000     0.00000

 30 33  0     1  0            999 V2000
   -6.0463    2.1917    0.6426 O   0  0  0  0  0  2           0  0  0
   -4.5027    2.2968   -1.4514 O   0  0  0  0  0  2           0  0  0
    6.0078    0.0054   -2.1139 O   0  0  0  0  0  2           0  0  0
    3.5294    0.0028   -1.1341 N   0  0  0  0  0  3           0  0  0
    3.4641    0.0087    1.2529 N   0  0  0  0  0  3           0  0  0
   -0.5352   -0.5943    2.2426 N   0  0  0  0  0  3           0  0  0
   -2.6702   -0.0682    3.1970 N   0  0  0  0  0  3           0  0  0
    0.0000    0.0000    0.0000 N   0  0  0  0  0  3           0  0  0
    5.5367    0.0106    0.1523 N   0  0  0  0  0  3           0  0  0
   -4.8031    1.6434    0.7828 C   0  0  0  0  0  4           0  0  0
   -3.9735    1.7016   -0.3417 C   0  0  0  0  0  4           0  0  0
    4.1270    0.0070    0.0776 C   0  0  0  0  0  4           0  0  0
   -1.4346   -0.5872    3.2356 C   0  0  0  0  0  4           0  0  0
   -0.9059   -0.0000    1.0820 C   0  0  0  0  0  4           0  0  0
   -3.0494    0.4975    2.0435 C   0  0  0  0  0  4           0  0  0
    2.1767    0.0000   -1.1386 C   0  0  0  0  0  4           0  0  0
    2.1142    0.0059    1.1798 C   0  0  0  0  0  4           0  0  0
    1.3912    0.0000   -0.0000 C   0  0  0  0  0  4           0  0  0
   -2.1996    0.5594    0.9228 C   0  0  0  0  0  4           0  0  0
    7.8286    0.0150   -0.6433 C   0  0  0  0  0  4           0  0  0
   -4.3301    1.0388    1.9547 C   0  0  0  0  0  4           0  0  0
   -2.6846    1.1612   -0.2668 C   0  0  0  0  0  4           0  0  0
    8.2860   -0.5490    0.5486 C   0  0  0  0  0  4           0  0  0
    8.7137    0.5672   -1.5702 C   0  0  0  0  0  4           0  0  0
    9.6541   -0.5504    0.8173 C   0  0  0  0  0  4           0  0  0
   10.0797    0.5603   -1.2916 C   0  0  0  0  0  4           0  0  0
   10.5492    0.0035   -0.1001 C   0  0  0  0  0  4           0  0  0
    6.3764    0.0096   -0.9413 C   0  0  0  0  0  4           0  0  0
   -7.0595    1.3005    0.1841 C   0  0  0  0  0  4           0  0  0
   -4.2856    3.7016   -1.5543 C   0  0  0  0  0  4           0  0  0
  1 10  1  0     0  0
  1 29  1  0     0  0
  2 11  1  0     0  0
  2 30  1  0     0  0
  3 28  2  0     0  0
  4 12  2  0     0  0
  4 16  1  0     0  0
  5 12  1  0     0  0
  5 17  2  0     0  0
  6 13  1  0     0  0
  6 14  2  0     0  0
  7 13  2  0     0  0
  7 15  1  0     0  0
  8 14  1  0     0  0
  8 18  1  0     0  0
  9 12  1  0     0  0
  9 28  1  0     0  0
 10 11  1  0     0  0
 10 21  2  0     0  0
 11 22  2  0     0  0
 14 19  1  0     0  0
 15 19  2  0     0  0
 15 21  1  0     0  0
 16 18  2  0     0  0
 17 18  1  0     0  0
 19 22  1  0     0  0
 20 23  2  0     0  0
 20 24  1  0     0  0
 20 28  1  0     0  0
 23 25  1  0     0  0
 24 26  2  0     0  0
 25 27  2  0     0  0
 26 27  1  0     0  0
M  END
> <standard_type>
pIC50

> <# Confs.>
25

> <canonical_smiles>
O=C(NC1=NC=C(NC2=NC=NC3=C2C=C(OC)C(OC)=C3)C=N1)C4=CC=CC=C4

> <standard_relation>
=

> <Publication_ID>
nan

> <predicted_activity_value>
7.721246399047171

> <actual_activity_value>
7.6020599913279625

> <Compound>
11

> <standard_units>
nM

> hash
7075920698246586756

$$$$
11_
XXILIB    08252103493D 0   0.00000     0.00000

 30 33  0     1  0            999 V2000
   -6.0463    2.1917    0.6426 O   0  0  0  0  0  2           0  0  0
   -4.5027    2.2968   -1.4514 O   0  0  0  0  0  2           0  0  0
    6.0078   -0.0054    2.1139 O   0  0  0  0  0  2           0  0  0
    3.5294   -0.0028    1.1341 N   0  0  0  0  0  3           0  0  0
    3.4641   -0.0087   -1.2529 N   0  0  0  0  0  3           0  0  0
   -0.5352   -0.5943    2.2426 N   0  0  0  0  0  3           0  0  0
   -2.6702   -0.0682    3.1970 N   0  0  0  0  0  3           0  0  0
    0.0000    0.0000    0.0000 N   0  0  0  0  0  3           0  0  0
    5.5367   -0.0106   -0.1523 N   0  0  0  0  0  3           0  0  0
   -4.8031    1.6434    0.7828 C   0  0  0  0  0  4           0  0  0
   -3.9735    1.7016   -0.3417 C   0  0  0  0  0  4           0  0  0
    4.1270   -0.0070   -0.0776 C   0  0  0  0  0  4           0  0  0
   -1.4346   -0.5872    3.2356 C   0  0  0  0  0  4           0  0  0
   -0.9059   -0.0000    1.0820 C   0  0  0  0  0  4           0  0  0
   -3.0494    0.4975    2.0435 C   0  0  0  0  0  4           0  0  0
    2.1767   -0.0000    1.1386 C   0  0  0  0  0  4           0  0  0
    2.1142   -0.0059   -1.1798 C   0  0  0  0  0  4           0  0  0
    1.3912    0.0000    0.0000 C   0  0  0  0  0  4           0  0  0
   -2.1996    0.5594    0.9228 C   0  0  0  0  0  4           0  0  0
    7.8286   -0.0150    0.6433 C   0  0  0  0  0  4           0  0  0
   -4.3301    1.0388    1.9547 C   0  0  0  0  0  4           0  0  0
   -2.6846    1.1612   -0.2668 C   0  0  0  0  0  4           0  0  0
    8.7214    0.5198    1.5733 C   0  0  0  0  0  4           0  0  0
    8.2777   -0.5728   -0.5545 C   0  0  0  0  0  4           0  0  0
   10.0866    0.5014    1.2913 C   0  0  0  0  0  4           0  0  0
    9.6450   -0.5863   -0.8263 C   0  0  0  0  0  4           0  0  0
   10.5478   -0.0497    0.0941 C   0  0  0  0  0  4           0  0  0
    6.3764   -0.0096    0.9413 C   0  0  0  0  0  4           0  0  0
   -7.0595    1.3005    0.1841 C   0  0  0  0  0  4           0  0  0
   -4.2856    3.7016   -1.5543 C   0  0  0  0  0  4           0  0  0
  1 10  1  0     0  0
  1 29  1  0     0  0
  2 11  1  0     0  0
  2 30  1  0     0  0
  3 28  2  0     0  0
  4 12  2  0     0  0
  4 16  1  0     0  0
  5 12  1  0     0  0
  5 17  2  0     0  0
  6 13  1  0     0  0
  6 14  2  0     0  0
  7 13  2  0     0  0
  7 15  1  0     0  0
  8 14  1  0     0  0
  8 18  1  0     0  0
  9 12  1  0     0  0
  9 28  1  0     0  0
 10 11  1  0     0  0
 10 21  2  0     0  0
 11 22  2  0     0  0
 14 19  1  0     0  0
 15 19  2  0     0  0
 15 21  1  0     0  0
 16 18  2  0     0  0
 17 18  1  0     0  0
 19 22  1  0     0  0
 20 23  2  0     0  0
 20 24  1  0     0  0
 20 28  1  0     0  0
 23 25  1  0     0  0
 24 26  2  0     0  0
 25 27  2  0     0  0
 26 27  1  0     0  0
M  END
> <standard_type>
pIC50

> <# Confs.>
25

> <canonical_smiles>
O=C(NC1=NC=C(NC2=NC=NC3=C2C=C(OC)C(OC)=C3)C=N1)C4=CC=CC=C4

> <standard_relation>
=

> <Publication_ID>
nan

> <predicted_activity_value>
7.721246399047171

> <actual_activity_value>
7.6020599913279625

> <Compound>
11

> <standard_units>
nM

> hash
7075920698246586756

$$$$
11_
XXILIB    08252103493D 0   0.00000     0.00000

 30 33  0     1  0            999 V2000
   -4.7722    4.0097    1.7093 O   0  0  0  0  0  2           0  0  0
   -3.1718    4.1812   -0.3371 O   0  0  0  0  0  2           0  0  0
    6.0078   -1.0523   -1.8334 O   0  0  0  0  0  2           0  0  0
    3.5294   -0.5646   -0.9836 N   0  0  0  0  0  3           0  0  0
    3.4641    0.6340    1.0807 N   0  0  0  0  0  3           0  0  0
   -0.8687   -1.0294    1.9633 N   0  0  0  0  0  3           0  0  0
   -2.6969   -0.0615    3.1747 N   0  0  0  0  0  3           0  0  0
    0.0000    0.0000    0.0000 N   0  0  0  0  0  3           0  0  0
    5.5367    0.0854    0.1266 N   0  0  0  0  0  3           0  0  0
   -3.8464    3.0133    1.5838 C   0  0  0  0  0  4           0  0  0
   -2.9856    3.1067    0.4854 C   0  0  0  0  0  4           0  0  0
    4.1270    0.0448    0.0637 C   0  0  0  0  0  4           0  0  0
   -1.7601   -0.9971    2.9631 C   0  0  0  0  0  4           0  0  0
   -0.9059    0.0000    1.0820 C   0  0  0  0  0  4           0  0  0
   -2.7532    0.9439    2.2914 C   0  0  0  0  0  4           0  0  0
    2.1767   -0.5693   -0.9860 C   0  0  0  0  0  4           0  0  0
    2.1142    0.5950    1.0188 C   0  0  0  0  0  4           0  0  0
    1.3912   -0.0000   -0.0000 C   0  0  0  0  0  4           0  0  0
   -1.8727    1.0315    1.1965 C   0  0  0  0  0  4           0  0  0
    7.8286   -0.3087   -0.5646 C   0  0  0  0  0  4           0  0  0
   -3.7197    1.9323    2.4658 C   0  0  0  0  0  4           0  0  0
   -2.0104    2.1205    0.2977 C   0  0  0  0  0  4           0  0  0
    8.7214   -1.2368   -1.1026 C   0  0  0  0  0  4           0  0  0
    8.2777    0.7734    0.1938 C   0  0  0  0  0  4           0  0  0
   10.0866   -1.0799   -0.8676 C   0  0  0  0  0  4           0  0  0
    9.6450    0.9209    0.4224 C   0  0  0  0  0  4           0  0  0
   10.5478   -0.0040   -0.1064 C   0  0  0  0  0  4           0  0  0
    6.3764   -0.4623   -0.8200 C   0  0  0  0  0  4           0  0  0
   -5.6410    3.8994    2.8336 C   0  0  0  0  0  4           0  0  0
   -2.2860    4.2597   -1.4507 C   0  0  0  0  0  4           0  0  0
  1 10  1  0     0  0
  1 29  1  0     0  0
  2 11  1  0     0  0
  2 30  1  0     0  0
  3 28  2  0     0  0
  4 12  2  0     0  0
  4 16  1  0     0  0
  5 12  1  0     0  0
  5 17  2  0     0  0
  6 13  1  0     0  0
  6 14  2  0     0  0
  7 13  2  0     0  0
  7 15  1  0     0  0
  8 14  1  0     0  0
  8 18  1  0     0  0
  9 12  1  0     0  0
  9 28  1  0     0  0
 10 11  1  0     0  0
 10 21  2  0     0  0
 11 22  2  0     0  0
 14 19  1  0     0  0
 15 19  2  0     0  0
 15 21  1  0     0  0
 16 18  2  0     0  0
 17 18  1  0     0  0
 19 22  1  0     0  0
 20 23  2  0     0  0
 20 24  1  0     0  0
 20 28  1  0     0  0
 23 25  1  0     0  0
 24 26  2  0     0  0
 25 27  2  0     0  0
 26 27  1  0     0  0
M  END
> <standard_type>
pIC50

> <# Confs.>
25

> <canonical_smiles>
O=C(NC1=NC=C(NC2=NC=NC3=C2C=C(OC)C(OC)=C3)C=N1)C4=CC=CC=C4

> <standard_relation>
=

> <Publication_ID>
nan

> <predicted_activity_value>
7.721246399047171

> <actual_activity_value>
7.6020599913279625

> <Compound>
11

> <standard_units>
nM

> hash
7075920698246586756

$$$$
11_
XXILIB    08252103493D 0   0.00000     0.00000

 30 33  0     1  0            999 V2000
   -6.0463    2.1917    0.6426 O   0  0  0  0  0  2           0  0  0
   -4.5027    2.2968   -1.4514 O   0  0  0  0  0  2           0  0  0
    6.0078    0.0054   -2.1139 O   0  0  0  0  0  2           0  0  0
    3.5294    0.0028   -1.1341 N   0  0  0  0  0  3           0  0  0
    3.4641    0.0087    1.2529 N   0  0  0  0  0  3           0  0  0
   -0.5352   -0.5943    2.2426 N   0  0  0  0  0  3           0  0  0
   -2.6702   -0.0682    3.1970 N   0  0  0  0  0  3           0  0  0
    0.0000    0.0000    0.0000 N   0  0  0  0  0  3           0  0  0
    5.5367    0.0106    0.1523 N   0  0  0  0  0  3           0  0  0
   -4.8031    1.6434    0.7828 C   0  0  0  0  0  4           0  0  0
   -3.9735    1.7016   -0.3417 C   0  0  0  0  0  4           0  0  0
    4.1270    0.0070    0.0776 C   0  0  0  0  0  4           0  0  0
   -1.4346   -0.5872    3.2356 C   0  0  0  0  0  4           0  0  0
   -0.9059   -0.0000    1.0820 C   0  0  0  0  0  4           0  0  0
   -3.0494    0.4975    2.0435 C   0  0  0  0  0  4           0  0  0
    2.1767    0.0000   -1.1386 C   0  0  0  0  0  4           0  0  0
    2.1142    0.0059    1.1798 C   0  0  0  0  0  4           0  0  0
    1.3912    0.0000   -0.0000 C   0  0  0  0  0  4           0  0  0
   -2.1996    0.5594    0.9228 C   0  0  0  0  0  4           0  0  0
    7.8286    0.0150   -0.6433 C   0  0  0  0  0  4           0  0  0
   -4.3301    1.0388    1.9547 C   0  0  0  0  0  4           0  0  0
   -2.6846    1.1612   -0.2668 C   0  0  0  0  0  4           0  0  0
    8.2860   -0.5490    0.5486 C   0  0  0  0  0  4           0  0  0
    8.7137    0.5672   -1.5702 C   0  0  0  0  0  4           0  0  0
    9.6541   -0.5504    0.8173 C   0  0  0  0  0  4           0  0  0
   10.0797    0.5603   -1.2916 C   0  0  0  0  0  4           0  0  0
   10.5492    0.0035   -0.1001 C   0  0  0  0  0  4           0  0  0
    6.3764    0.0096   -0.9413 C   0  0  0  0  0  4           0  0  0
   -6.1464    3.5738    0.9755 C   0  0  0  0  0  4           0  0  0
   -5.1938    1.4251   -2.3422 C   0  0  0  0  0  4           0  0  0
  1 10  1  0     0  0
  1 29  1  0     0  0
  2 11  1  0     0  0
  2 30  1  0     0  0
  3 28  2  0     0  0
  4 12  2  0     0  0
  4 16  1  0     0  0
  5 12  1  0     0  0
  5 17  2  0     0  0
  6 13  1  0     0  0
  6 14  2  0     0  0
  7 13  2  0     0  0
  7 15  1  0     0  0
  8 14  1  0     0  0
  8 18  1  0     0  0
  9 12  1  0     0  0
  9 28  1  0     0  0
 10 11  1  0     0  0
 10 21  2  0     0  0
 11 22  2  0     0  0
 14 19  1  0     0  0
 15 19  2  0     0  0
 15 21  1  0     0  0
 16 18  2  0     0  0
 17 18  1  0     0  0
 19 22  1  0     0  0
 20 23  2  0     0  0
 20 24  1  0     0  0
 20 28  1  0     0  0
 23 25  1  0     0  0
 24 26  2  0     0  0
 25 27  2  0     0  0
 26 27  1  0     0  0
M  END
> <standard_type>
pIC50

> <# Confs.>
25

> <canonical_smiles>
O=C(NC1=NC=C(NC2=NC=NC3=C2C=C(OC)C(OC)=C3)C=N1)C4=CC=CC=C4

> <standard_relation>
=

> <Publication_ID>
nan

> <predicted_activity_value>
7.721246399047171

> <actual_activity_value>
7.6020599913279625

> <Compound>
11

> <standard_units>
nM

> hash
7075920698246586756

$$$$
11_
XXILIB    08252103493D 0   0.00000     0.00000

 30 33  0     1  0            999 V2000
   -6.0463    2.1917    0.6426 O   0  0  0  0  0  2           0  0  0
   -4.5027    2.2968   -1.4514 O   0  0  0  0  0  2           0  0  0
    6.0078   -0.0054    2.1139 O   0  0  0  0  0  2           0  0  0
    3.5294   -0.0028    1.1341 N   0  0  0  0  0  3           0  0  0
    3.4641   -0.0087   -1.2529 N   0  0  0  0  0  3           0  0  0
   -0.5352   -0.5943    2.2426 N   0  0  0  0  0  3           0  0  0
   -2.6702   -0.0682    3.1970 N   0  0  0  0  0  3           0  0  0
    0.0000    0.0000    0.0000 N   0  0  0  0  0  3           0  0  0
    5.5367   -0.0106   -0.1523 N   0  0  0  0  0  3           0  0  0
   -4.8031    1.6434    0.7828 C   0  0  0  0  0  4           0  0  0
   -3.9735    1.7016   -0.3417 C   0  0  0  0  0  4           0  0  0
    4.1270   -0.0070   -0.0776 C   0  0  0  0  0  4           0  0  0
   -1.4346   -0.5872    3.2356 C   0  0  0  0  0  4           0  0  0
   -0.9059   -0.0000    1.0820 C   0  0  0  0  0  4           0  0  0
   -3.0494    0.4975    2.0435 C   0  0  0  0  0  4           0  0  0
    2.1767   -0.0000    1.1386 C   0  0  0  0  0  4           0  0  0
    2.1142   -0.0059   -1.1798 C   0  0  0  0  0  4           0  0  0
    1.3912    0.0000    0.0000 C   0  0  0  0  0  4           0  0  0
   -2.1996    0.5594    0.9228 C   0  0  0  0  0  4           0  0  0
    7.8286   -0.0150    0.6433 C   0  0  0  0  0  4           0  0  0
   -4.3301    1.0388    1.9547 C   0  0  0  0  0  4           0  0  0
   -2.6846    1.1612   -0.2668 C   0  0  0  0  0  4           0  0  0
    8.7214    0.5198    1.5733 C   0  0  0  0  0  4           0  0  0
    8.2777   -0.5728   -0.5545 C   0  0  0  0  0  4           0  0  0
   10.0866    0.5014    1.2913 C   0  0  0  0  0  4           0  0  0
    9.6450   -0.5863   -0.8263 C   0  0  0  0  0  4           0  0  0
   10.5478   -0.0497    0.0941 C   0  0  0  0  0  4           0  0  0
    6.3764   -0.0096    0.9413 C   0  0  0  0  0  4           0  0  0
   -6.1464    3.5738    0.9755 C   0  0  0  0  0  4           0  0  0
   -5.1938    1.4251   -2.3422 C   0  0  0  0  0  4           0  0  0
  1 10  1  0     0  0
  1 29  1  0     0  0
  2 11  1  0     0  0
  2 30  1  0     0  0
  3 28  2  0     0  0
  4 12  2  0     0  0
  4 16  1  0     0  0
  5 12  1  0     0  0
  5 17  2  0     0  0
  6 13  1  0     0  0
  6 14  2  0     0  0
  7 13  2  0     0  0
  7 15  1  0     0  0
  8 14  1  0     0  0
  8 18  1  0     0  0
  9 12  1  0     0  0
  9 28  1  0     0  0
 10 11  1  0     0  0
 10 21  2  0     0  0
 11 22  2  0     0  0
 14 19  1  0     0  0
 15 19  2  0     0  0
 15 21  1  0     0  0
 16 18  2  0     0  0
 17 18  1  0     0  0
 19 22  1  0     0  0
 20 23  2  0     0  0
 20 24  1  0     0  0
 20 28  1  0     0  0
 23 25  1  0     0  0
 24 26  2  0     0  0
 25 27  2  0     0  0
 26 27  1  0     0  0
M  END
> <standard_type>
pIC50

> <# Confs.>
25

> <canonical_smiles>
O=C(NC1=NC=C(NC2=NC=NC3=C2C=C(OC)C(OC)=C3)C=N1)C4=CC=CC=C4

> <standard_relation>
=

> <Publication_ID>
nan

> <predicted_activity_value>
7.721246399047171

> <actual_activity_value>
7.6020599913279625

> <Compound>
11

> <standard_units>
nM

> hash
7075920698246586756

$$$$
11_
XXILIB    08252103493D 0   0.00000     0.00000

 30 33  0     1  0            999 V2000
   -6.0463    2.1917    0.6426 O   0  0  0  0  0  2           0  0  0
   -4.5027    2.2968   -1.4514 O   0  0  0  0  0  2           0  0  0
    6.0078   -1.0523   -1.8334 O   0  0  0  0  0  2           0  0  0
    3.5294   -0.5646   -0.9836 N   0  0  0  0  0  3           0  0  0
    3.4641    0.6340    1.0807 N   0  0  0  0  0  3           0  0  0
   -0.5352   -0.5943    2.2426 N   0  0  0  0  0  3           0  0  0
   -2.6702   -0.0682    3.1970 N   0  0  0  0  0  3           0  0  0
    0.0000    0.0000    0.0000 N   0  0  0  0  0  3           0  0  0
    5.5367    0.0854    0.1266 N   0  0  0  0  0  3           0  0  0
   -4.8031    1.6434    0.7828 C   0  0  0  0  0  4           0  0  0
   -3.9735    1.7016   -0.3417 C   0  0  0  0  0  4           0  0  0
    4.1270    0.0448    0.0637 C   0  0  0  0  0  4           0  0  0
   -1.4346   -0.5872    3.2356 C   0  0  0  0  0  4           0  0  0
   -0.9059   -0.0000    1.0820 C   0  0  0  0  0  4           0  0  0
   -3.0494    0.4975    2.0435 C   0  0  0  0  0  4           0  0  0
    2.1767   -0.5693   -0.9860 C   0  0  0  0  0  4           0  0  0
    2.1142    0.5950    1.0188 C   0  0  0  0  0  4           0  0  0
    1.3912   -0.0000   -0.0000 C   0  0  0  0  0  4           0  0  0
   -2.1996    0.5594    0.9228 C   0  0  0  0  0  4           0  0  0
    7.8286   -0.3087   -0.5646 C   0  0  0  0  0  4           0  0  0
   -4.3301    1.0388    1.9547 C   0  0  0  0  0  4           0  0  0
   -2.6846    1.1612   -0.2668 C   0  0  0  0  0  4           0  0  0
    8.7214   -1.2368   -1.1026 C   0  0  0  0  0  4           0  0  0
    8.2777    0.7734    0.1938 C   0  0  0  0  0  4           0  0  0
   10.0866   -1.0799   -0.8676 C   0  0  0  0  0  4           0  0  0
    9.6450    0.9209    0.4224 C   0  0  0  0  0  4           0  0  0
   10.5478   -0.0040   -0.1064 C   0  0  0  0  0  4           0  0  0
    6.3764   -0.4623   -0.8200 C   0  0  0  0  0  4           0  0  0
   -6.1464    3.5738    0.9755 C   0  0  0  0  0  4           0  0  0
   -5.1938    1.4251   -2.3422 C   0  0  0  0  0  4           0  0  0
  1 10  1  0     0  0
  1 29  1  0     0  0
  2 11  1  0     0  0
  2 30  1  0     0  0
  3 28  2  0     0  0
  4 12  2  0     0  0
  4 16  1  0     0  0
  5 12  1  0     0  0
  5 17  2  0     0  0
  6 13  1  0     0  0
  6 14  2  0     0  0
  7 13  2  0     0  0
  7 15  1  0     0  0
  8 14  1  0     0  0
  8 18  1  0     0  0
  9 12  1  0     0  0
  9 28  1  0     0  0
 10 11  1  0     0  0
 10 21  2  0     0  0
 11 22  2  0     0  0
 14 19  1  0     0  0
 15 19  2  0     0  0
 15 21  1  0     0  0
 16 18  2  0     0  0
 17 18  1  0     0  0
 19 22  1  0     0  0
 20 23  2  0     0  0
 20 24  1  0     0  0
 20 28  1  0     0  0
 23 25  1  0     0  0
 24 26  2  0     0  0
 25 27  2  0     0  0
 26 27  1  0     0  0
M  END
> <standard_type>
pIC50

> <# Confs.>
25

> <canonical_smiles>
O=C(NC1=NC=C(NC2=NC=NC3=C2C=C(OC)C(OC)=C3)C=N1)C4=CC=CC=C4

> <standard_relation>
=

> <Publication_ID>
nan

> <predicted_activity_value>
7.721246399047171

> <actual_activity_value>
7.6020599913279625

> <Compound>
11

> <standard_units>
nM

> hash
7075920698246586756

$$$$
8_
XXILIB    08252103493D 0   0.00000     0.00000

 40 43  0     1  0            999 V2000
   -2.2305   -4.0578   14.0028 F   0  0  0  0  0  1           0  0  0
   -1.0933   -6.3483   14.8371 F   0  0  0  0  0  1           0  0  0
    0.0000    0.0000    0.0000 O   0  0  0  0  0  2           0  0  0
   -3.1142   -4.1083    8.9637 O   0  0  0  0  0  2           0  0  0
   -0.9344   -3.1918   -3.7773 O   0  0  0  0  0  2           0  0  0
   -4.2433   -1.6602    8.4842 N   0  0  0  0  0  3           0  0  0
   -3.3681   -1.0634    7.6551 N   0  0  0  0  0  3           0  0  0
   -1.6325    0.7528    6.0809 N   0  0  0  0  0  3           0  0  0
    0.1673    1.2290    4.5696 N   0  0  0  0  0  3           0  0  0
   -3.6175   -0.3492    5.3512 N   0  0  0  0  0  3           0  0  0
   -2.8796   -3.6709   11.2352 N   0  0  0  0  0  3           0  0  0
    1.8506   -3.0081   -2.4965 N   0  0  1  0  0  3           0  0  0
   -1.9785   -5.0164   13.1001 C   0  0  0  0  0  4           0  0  0
   -1.3923   -6.1998   13.5391 C   0  0  0  0  0  4           0  0  0
   -0.5871    0.0000    1.2340 C   0  0  0  0  0  4           0  0  0
   -0.4234    1.2419    5.7731 C   0  0  0  0  0  4           0  0  0
   -4.0547   -0.9054    6.5118 C   0  0  0  0  0  4           0  0  0
   -2.3414    0.1944    5.0683 C   0  0  0  0  0  4           0  0  0
   -0.5172    0.6552    3.5720 C   0  0  0  0  0  4           0  0  0
   -5.4645   -1.8871    7.9250 C   0  0  0  0  0  4           0  0  0
   -2.2915   -4.8424   11.7492 C   0  0  0  0  0  4           0  0  0
   -1.8010    0.0982    3.7605 C   0  0  0  0  0  4           0  0  0
   -1.1111   -7.2292   12.6487 C   0  0  0  0  0  4           0  0  0
    0.0643    0.6062    2.3086 C   0  0  0  0  0  4           0  0  0
   -1.8493   -0.5501    1.3960 C   0  0  0  0  0  4           0  0  0
   -5.3762   -1.4099    6.6401 C   0  0  0  0  0  4           0  0  0
   -2.0069   -5.8795   10.8513 C   0  0  0  0  0  4           0  0  0
   -2.4483   -0.5077    2.6526 C   0  0  0  0  0  4           0  0  0
   -1.4199   -7.0668   11.3001 C   0  0  0  0  0  4           0  0  0
   -3.2408   -3.3631    9.9330 C   0  0  0  0  0  4           0  0  0
    1.4279   -0.0000    0.0000 C   0  0  0  0  0  4           0  0  0
   -0.0715   -2.0824   -3.9940 C   0  0  0  0  0  4           0  0  0
   -3.8438   -1.9826    9.8357 C   0  0  0  0  0  4           0  0  0
    1.4017   -2.4877   -3.7906 C   0  0  0  0  0  4           0  0  0
    3.2789   -3.3436   -2.4777 C   0  0  0  0  0  4           0  0  0
    1.4553   -2.1872   -1.3490 C   0  0  0  0  0  4           0  0  0
    3.8393   -4.4012   -3.4490 C   0  0  1  0  0  4           0  0  0
    1.9196   -0.7208   -1.2485 C   0  0  0  0  0  4           0  0  0
    5.3454   -4.6057   -3.2715 C   0  0  0  0  0  4           0  0  0
    3.1027   -5.7378   -3.3341 C   0  0  0  0  0  4           0  0  0
  1 13  1  0     0  0
  2 14  1  0     0  0
  3 15  1  0     0  0
  3 31  1  0     0  0
  4 30  2  0     0  0
  5 32  1  0     0  0
  6  7  1  0     0  0
  6 20  1  0     0  0
  6 33  1  0     0  0
  7 17  2  0     0  0
  8 16  1  0     0  0
  8 18  2  0     0  0
  9 16  2  0     0  0
  9 19  1  0     0  0
 10 17  1  0     0  0
 10 18  1  0     0  0
 11 21  1  0     0  0
 11 30  1  0     0  0
 12 34  1  0     0  0
 12 35  1  0     0  0
 12 36  1  0     0  0
 13 14  1  0     0  0
 13 21  2  0     0  0
 14 23  2  0     0  0
 15 24  2  0     0  0
 15 25  1  0     0  0
 17 26  1  0     0  0
 18 22  1  0     0  0
 19 22  2  0     0  0
 19 24  1  0     0  0
 20 26  2  0     0  0
 21 27  1  0     0  0
 22 28  1  0     0  0
 23 29  1  0     0  0
 25 28  2  0     0  0
 27 29  2  0     0  0
 30 33  1  0     0  0
 31 38  1  0     0  0
 32 34  1  0     0  0
 35 37  1  0     0  0
 36 38  1  0     0  0
 37 39  1  0     0  0
 37 40  1  0     0  0
M  END
> <standard_type>
pIC50

> <# Confs.>
25

> <canonical_smiles>
FC1=C(NC(CN2C=CC(NC3=NC=NC4=C3C=CC(OCCCN(CCO)CC(C)C)=C4)=N2)=O)C=CC=C1F

> <standard_relation>
=

> <Publication_ID>
nan

> <predicted_activity_value>
7.853871964321762

> <actual_activity_value>
8.045757490560675

> <Compound>
8

> <standard_units>
nM

> hash
5485682240152081559

$$$$
8_
XXILIB    08252103493D 0   0.00000     0.00000

 40 43  0     1  0            999 V2000
   -4.4780    5.4948   12.9335 F   0  0  0  0  0  1           0  0  0
   -3.4260    7.8397   13.7273 F   0  0  0  0  0  1           0  0  0
    0.0000    0.0000    0.0000 O   0  0  0  0  0  2           0  0  0
   -1.3088    2.9539    9.8227 O   0  0  0  0  0  2           0  0  0
   -0.9344    1.6753   -4.6528 O   0  0  0  0  0  2           0  0  0
   -2.6923    0.6685    9.2221 N   0  0  0  0  0  3           0  0  0
   -2.8718    0.7461    7.8912 N   0  0  0  0  0  3           0  0  0
   -3.7632    0.6095    5.0671 N   0  0  0  0  0  3           0  0  0
   -3.6577    1.2166    2.7497 N   0  0  0  0  0  3           0  0  0
   -2.0339   -0.6633    6.1046 N   0  0  0  0  0  3           0  0  0
   -3.0251    3.7640   11.1660 N   0  0  0  0  0  3           0  0  0
    1.8506    0.6580   -3.8534 N   0  0  1  0  0  3           0  0  0
   -3.2592    5.8353   12.4908 C   0  0  0  0  0  4           0  0  0
   -2.7200    7.0487   12.9074 C   0  0  0  0  0  4           0  0  0
   -0.5871    0.0000    1.2340 C   0  0  0  0  0  4           0  0  0
   -4.2364    1.1960    3.9589 C   0  0  0  0  0  4           0  0  0
   -2.1769   -0.2953    7.4052 C   0  0  0  0  0  4           0  0  0
   -2.5791   -0.0424    4.9552 C   0  0  0  0  0  4           0  0  0
   -2.4757    0.5970    2.6402 C   0  0  0  0  0  4           0  0  0
   -1.9169   -0.3811    9.6129 C   0  0  0  0  0  4           0  0  0
   -2.5393    5.0008   11.6313 C   0  0  0  0  0  4           0  0  0
   -1.8633   -0.0584    3.7308 C   0  0  0  0  0  4           0  0  0
   -1.4595    7.4520   12.4829 C   0  0  0  0  0  4           0  0  0
   -1.8319    0.6062    1.4064 C   0  0  0  0  0  4           0  0  0
    0.0304   -0.6517    2.2903 C   0  0  0  0  0  4           0  0  0
   -1.5621   -1.0287    8.4549 C   0  0  0  0  0  4           0  0  0
   -1.2692    5.4078   11.2023 C   0  0  0  0  0  4           0  0  0
   -0.6004   -0.6738    3.5319 C   0  0  0  0  0  4           0  0  0
   -0.7329    6.6275   11.6270 C   0  0  0  0  0  4           0  0  0
   -2.4274    2.8430   10.3200 C   0  0  0  0  0  4           0  0  0
    1.4279   -0.0000   -0.0000 C   0  0  0  0  0  4           0  0  0
   -0.0715    2.4177   -3.8004 C   0  0  0  0  0  4           0  0  0
   -3.3158    1.6450   10.0869 C   0  0  0  0  0  4           0  0  0
    1.4017    2.0389   -4.0497 C   0  0  0  0  0  4           0  0  0
    3.2789    0.4740   -4.1345 C   0  0  0  0  0  4           0  0  0
    1.4553    0.0746   -2.5687 C   0  0  0  0  0  4           0  0  0
    3.8393    0.7864   -5.5361 C   0  0  1  0  0  4           0  0  0
    1.9196    0.7208   -1.2485 C   0  0  0  0  0  4           0  0  0
    5.3454    0.5303   -5.6243 C   0  0  0  0  0  4           0  0  0
    3.1027    0.0185   -6.6361 C   0  0  0  0  0  4           0  0  0
  1 13  1  0     0  0
  2 14  1  0     0  0
  3 15  1  0     0  0
  3 31  1  0     0  0
  4 30  2  0     0  0
  5 32  1  0     0  0
  6  7  1  0     0  0
  6 20  1  0     0  0
  6 33  1  0     0  0
  7 17  2  0     0  0
  8 16  1  0     0  0
  8 18  2  0     0  0
  9 16  2  0     0  0
  9 19  1  0     0  0
 10 17  1  0     0  0
 10 18  1  0     0  0
 11 21  1  0     0  0
 11 30  1  0     0  0
 12 34  1  0     0  0
 12 35  1  0     0  0
 12 36  1  0     0  0
 13 14  1  0     0  0
 13 21  2  0     0  0
 14 23  2  0     0  0
 15 24  2  0     0  0
 15 25  1  0     0  0
 17 26  1  0     0  0
 18 22  1  0     0  0
 19 22  2  0     0  0
 19 24  1  0     0  0
 20 26  2  0     0  0
 21 27  1  0     0  0
 22 28  1  0     0  0
 23 29  1  0     0  0
 25 28  2  0     0  0
 27 29  2  0     0  0
 30 33  1  0     0  0
 31 38  1  0     0  0
 32 34  1  0     0  0
 35 37  1  0     0  0
 36 38  1  0     0  0
 37 39  1  0     0  0
 37 40  1  0     0  0
M  END
> <standard_type>
pIC50

> <# Confs.>
25

> <canonical_smiles>
FC1=C(NC(CN2C=CC(NC3=NC=NC4=C3C=CC(OCCCN(CCO)CC(C)C)=C4)=N2)=O)C=CC=C1F

> <standard_relation>
=

> <Publication_ID>
nan

> <predicted_activity_value>
7.853871964321762

> <actual_activity_value>
8.045757490560675

> <Compound>
8

> <standard_units>
nM

> hash
5485682240152081559

$$$$
8_
XXILIB    08252103493D 0   0.00000     0.00000

 40 43  0     1  0            999 V2000
   -4.4780    5.4948   12.9335 F   0  0  0  0  0  1           0  0  0
   -3.4260    7.8397   13.7273 F   0  0  0  0  0  1           0  0  0
    0.0000    0.0000    0.0000 O   0  0  0  0  0  2           0  0  0
   -1.3088    2.9539    9.8227 O   0  0  0  0  0  2           0  0  0
    5.1880   -1.0866   -3.8362 O   0  0  0  0  0  2           0  0  0
   -2.6923    0.6685    9.2221 N   0  0  0  0  0  3           0  0  0
   -2.8718    0.7461    7.8912 N   0  0  0  0  0  3           0  0  0
   -3.7632    0.6095    5.0671 N   0  0  0  0  0  3           0  0  0
   -3.6577    1.2166    2.7497 N   0  0  0  0  0  3           0  0  0
   -2.0339   -0.6633    6.1046 N   0  0  0  0  0  3           0  0  0
   -3.0251    3.7640   11.1660 N   0  0  0  0  0  3           0  0  0
    4.0749    1.4537   -2.5179 N   0  0  1  0  0  3           0  0  0
   -3.2592    5.8353   12.4908 C   0  0  0  0  0  4           0  0  0
   -2.7200    7.0487   12.9074 C   0  0  0  0  0  4           0  0  0
   -0.5871    0.0000    1.2340 C   0  0  0  0  0  4           0  0  0
   -4.2364    1.1960    3.9589 C   0  0  0  0  0  4           0  0  0
   -2.1769   -0.2953    7.4052 C   0  0  0  0  0  4           0  0  0
   -2.5791   -0.0424    4.9552 C   0  0  0  0  0  4           0  0  0
   -2.4757    0.5970    2.6402 C   0  0  0  0  0  4           0  0  0
   -1.9169   -0.3811    9.6129 C   0  0  0  0  0  4           0  0  0
   -2.5393    5.0008   11.6313 C   0  0  0  0  0  4           0  0  0
   -1.8633   -0.0584    3.7308 C   0  0  0  0  0  4           0  0  0
   -1.4595    7.4520   12.4829 C   0  0  0  0  0  4           0  0  0
   -1.8319    0.6062    1.4064 C   0  0  0  0  0  4           0  0  0
    0.0304   -0.6517    2.2903 C   0  0  0  0  0  4           0  0  0
   -1.5621   -1.0287    8.4549 C   0  0  0  0  0  4           0  0  0
   -1.2692    5.4078   11.2023 C   0  0  0  0  0  4           0  0  0
   -0.6004   -0.6738    3.5319 C   0  0  0  0  0  4           0  0  0
   -0.7329    6.6275   11.6270 C   0  0  0  0  0  4           0  0  0
   -2.4274    2.8430   10.3200 C   0  0  0  0  0  4           0  0  0
    1.4279   -0.0000    0.0000 C   0  0  0  0  0  4           0  0  0
    3.8469   -0.6559   -4.0317 C   0  0  0  0  0  4           0  0  0
   -3.3158    1.6450   10.0869 C   0  0  0  0  0  4           0  0  0
    3.7238    0.8650   -3.8130 C   0  0  0  0  0  4           0  0  0
    3.8993    2.9100   -2.4837 C   0  0  0  0  0  4           0  0  0
    3.4548    0.7899   -1.3682 C   0  0  0  0  0  4           0  0  0
    4.6872    3.8087   -3.4572 C   0  0  1  0  0  4           0  0  0
    1.9196    0.7208   -1.2485 C   0  0  0  0  0  4           0  0  0
    4.3639    5.2916   -3.2620 C   0  0  0  0  0  4           0  0  0
    6.1969    3.5755   -3.3638 C   0  0  0  0  0  4           0  0  0
  1 13  1  0     0  0
  2 14  1  0     0  0
  3 15  1  0     0  0
  3 31  1  0     0  0
  4 30  2  0     0  0
  5 32  1  0     0  0
  6  7  1  0     0  0
  6 20  1  0     0  0
  6 33  1  0     0  0
  7 17  2  0     0  0
  8 16  1  0     0  0
  8 18  2  0     0  0
  9 16  2  0     0  0
  9 19  1  0     0  0
 10 17  1  0     0  0
 10 18  1  0     0  0
 11 21  1  0     0  0
 11 30  1  0     0  0
 12 34  1  0     0  0
 12 35  1  0     0  0
 12 36  1  0     0  0
 13 14  1  0     0  0
 13 21  2  0     0  0
 14 23  2  0     0  0
 15 24  2  0     0  0
 15 25  1  0     0  0
 17 26  1  0     0  0
 18 22  1  0     0  0
 19 22  2  0     0  0
 19 24  1  0     0  0
 20 26  2  0     0  0
 21 27  1  0     0  0
 22 28  1  0     0  0
 23 29  1  0     0  0
 25 28  2  0     0  0
 27 29  2  0     0  0
 30 33  1  0     0  0
 31 38  1  0     0  0
 32 34  1  0     0  0
 35 37  1  0     0  0
 36 38  1  0     0  0
 37 39  1  0     0  0
 37 40  1  0     0  0
M  END
> <standard_type>
pIC50

> <# Confs.>
25

> <canonical_smiles>
FC1=C(NC(CN2C=CC(NC3=NC=NC4=C3C=CC(OCCCN(CCO)CC(C)C)=C4)=N2)=O)C=CC=C1F

> <standard_relation>
=

> <Publication_ID>
nan

> <predicted_activity_value>
7.853871964321762

> <actual_activity_value>
8.045757490560675

> <Compound>
8

> <standard_units>
nM

> hash
5485682240152081559

$$$$
8_
XXILIB    08252103493D 0   0.00000     0.00000

 40 43  0     1  0            999 V2000
   -2.2305   -4.0578   14.0028 F   0  0  0  0  0  1           0  0  0
   -1.0933   -6.3483   14.8371 F   0  0  0  0  0  1           0  0  0
    0.0000    0.0000    0.0000 O   0  0  0  0  0  2           0  0  0
   -3.1142   -4.1083    8.9637 O   0  0  0  0  0  2           0  0  0
    5.1880   -3.8656   -0.9770 O   0  0  0  0  0  2           0  0  0
   -4.2433   -1.6602    8.4842 N   0  0  0  0  0  3           0  0  0
   -3.3681   -1.0634    7.6551 N   0  0  0  0  0  3           0  0  0
   -1.6325    0.7528    6.0809 N   0  0  0  0  0  3           0  0  0
    0.1673    1.2290    4.5696 N   0  0  0  0  0  3           0  0  0
   -3.6175   -0.3492    5.3512 N   0  0  0  0  0  3           0  0  0
   -2.8796   -3.6709   11.2352 N   0  0  0  0  0  3           0  0  0
    4.0749   -1.4537   -2.5179 N   0  0  1  0  0  3           0  0  0
   -1.9785   -5.0164   13.1001 C   0  0  0  0  0  4           0  0  0
   -1.3923   -6.1998   13.5391 C   0  0  0  0  0  4           0  0  0
   -0.5871    0.0000    1.2340 C   0  0  0  0  0  4           0  0  0
   -0.4234    1.2419    5.7731 C   0  0  0  0  0  4           0  0  0
   -4.0547   -0.9054    6.5118 C   0  0  0  0  0  4           0  0  0
   -2.3414    0.1944    5.0683 C   0  0  0  0  0  4           0  0  0
   -0.5172    0.6552    3.5720 C   0  0  0  0  0  4           0  0  0
   -5.4645   -1.8871    7.9250 C   0  0  0  0  0  4           0  0  0
   -2.2915   -4.8424   11.7492 C   0  0  0  0  0  4           0  0  0
   -1.8010    0.0982    3.7605 C   0  0  0  0  0  4           0  0  0
   -1.1111   -7.2292   12.6487 C   0  0  0  0  0  4           0  0  0
    0.0643    0.6062    2.3086 C   0  0  0  0  0  4           0  0  0
   -1.8493   -0.5501    1.3960 C   0  0  0  0  0  4           0  0  0
   -5.3762   -1.4099    6.6401 C   0  0  0  0  0  4           0  0  0
   -2.0069   -5.8795   10.8513 C   0  0  0  0  0  4           0  0  0
   -2.4483   -0.5077    2.6526 C   0  0  0  0  0  4           0  0  0
   -1.4199   -7.0668   11.3001 C   0  0  0  0  0  4           0  0  0
   -3.2408   -3.3631    9.9330 C   0  0  0  0  0  4           0  0  0
    1.4279    0.0000    0.0000 C   0  0  0  0  0  4           0  0  0
    3.8469   -3.8195   -1.4479 C   0  0  0  0  0  4           0  0  0
   -3.8438   -1.9826    9.8357 C   0  0  0  0  0  4           0  0  0
    3.7238   -2.8696   -2.6556 C   0  0  0  0  0  4           0  0  0
    3.8993   -0.6959   -3.7620 C   0  0  0  0  0  4           0  0  0
    3.4548   -0.7899   -1.3682 C   0  0  0  0  0  4           0  0  0
    4.6872   -1.0897   -5.0270 C   0  0  1  0  0  4           0  0  0
    1.9196   -0.7208   -1.2485 C   0  0  0  0  0  4           0  0  0
    4.3639   -0.1792   -6.2136 C   0  0  0  0  0  4           0  0  0
    6.1969   -1.1254   -4.7784 C   0  0  0  0  0  4           0  0  0
  1 13  1  0     0  0
  2 14  1  0     0  0
  3 15  1  0     0  0
  3 31  1  0     0  0
  4 30  2  0     0  0
  5 32  1  0     0  0
  6  7  1  0     0  0
  6 20  1  0     0  0
  6 33  1  0     0  0
  7 17  2  0     0  0
  8 16  1  0     0  0
  8 18  2  0     0  0
  9 16  2  0     0  0
  9 19  1  0     0  0
 10 17  1  0     0  0
 10 18  1  0     0  0
 11 21  1  0     0  0
 11 30  1  0     0  0
 12 34  1  0     0  0
 12 35  1  0     0  0
 12 36  1  0     0  0
 13 14  1  0     0  0
 13 21  2  0     0  0
 14 23  2  0     0  0
 15 24  2  0     0  0
 15 25  1  0     0  0
 17 26  1  0     0  0
 18 22  1  0     0  0
 19 22  2  0     0  0
 19 24  1  0     0  0
 20 26  2  0     0  0
 21 27  1  0     0  0
 22 28  1  0     0  0
 23 29  1  0     0  0
 25 28  2  0     0  0
 27 29  2  0     0  0
 30 33  1  0     0  0
 31 38  1  0     0  0
 32 34  1  0     0  0
 35 37  1  0     0  0
 36 38  1  0     0  0
 37 39  1  0     0  0
 37 40  1  0     0  0
M  END
> <standard_type>
pIC50

> <# Confs.>
25

> <canonical_smiles>
FC1=C(NC(CN2C=CC(NC3=NC=NC4=C3C=CC(OCCCN(CCO)CC(C)C)=C4)=N2)=O)C=CC=C1F

> <standard_relation>
=

> <Publication_ID>
nan

> <predicted_activity_value>
7.853871964321762

> <actual_activity_value>
8.045757490560675

> <Compound>
8

> <standard_units>
nM

> hash
5485682240152081559

$$$$
8_
XXILIB    08252103493D 0   0.00000     0.00000

 40 43  0     1  0            999 V2000
   -2.2305   -4.0578   14.0028 F   0  0  0  0  0  1           0  0  0
   -1.0933   -6.3483   14.8371 F   0  0  0  0  0  1           0  0  0
    0.0000    0.0000    0.0000 O   0  0  0  0  0  2           0  0  0
   -3.1142   -4.1083    8.9637 O   0  0  0  0  0  2           0  0  0
    3.7527    1.6001   -4.6979 O   0  0  0  0  0  2           0  0  0
   -4.2433   -1.6602    8.4842 N   0  0  0  0  0  3           0  0  0
   -3.3681   -1.0634    7.6551 N   0  0  0  0  0  3           0  0  0
   -1.6325    0.7528    6.0809 N   0  0  0  0  0  3           0  0  0
    0.1673    1.2290    4.5696 N   0  0  0  0  0  3           0  0  0
   -3.6175   -0.3492    5.3512 N   0  0  0  0  0  3           0  0  0
   -2.8796   -3.6709   11.2352 N   0  0  0  0  0  3           0  0  0
    1.8506   -0.6580   -3.8534 N   0  0  1  0  0  3           0  0  0
   -1.9785   -5.0164   13.1001 C   0  0  0  0  0  4           0  0  0
   -1.3923   -6.1998   13.5391 C   0  0  0  0  0  4           0  0  0
   -0.5871    0.0000    1.2340 C   0  0  0  0  0  4           0  0  0
   -0.4234    1.2419    5.7731 C   0  0  0  0  0  4           0  0  0
   -4.0547   -0.9054    6.5118 C   0  0  0  0  0  4           0  0  0
   -2.3414    0.1944    5.0683 C   0  0  0  0  0  4           0  0  0
   -0.5172    0.6552    3.5720 C   0  0  0  0  0  4           0  0  0
   -5.4645   -1.8871    7.9250 C   0  0  0  0  0  4           0  0  0
   -2.2915   -4.8424   11.7492 C   0  0  0  0  0  4           0  0  0
   -1.8010    0.0982    3.7605 C   0  0  0  0  0  4           0  0  0
   -1.1111   -7.2292   12.6487 C   0  0  0  0  0  4           0  0  0
    0.0643    0.6062    2.3086 C   0  0  0  0  0  4           0  0  0
   -1.8493   -0.5501    1.3960 C   0  0  0  0  0  4           0  0  0
   -5.3762   -1.4099    6.6401 C   0  0  0  0  0  4           0  0  0
   -2.0069   -5.8795   10.8513 C   0  0  0  0  0  4           0  0  0
   -2.4483   -0.5077    2.6526 C   0  0  0  0  0  4           0  0  0
   -1.4199   -7.0668   11.3001 C   0  0  0  0  0  4           0  0  0
   -3.2408   -3.3631    9.9330 C   0  0  0  0  0  4           0  0  0
    1.4279   -0.0000   -0.0000 C   0  0  0  0  0  4           0  0  0
    4.1643    0.5423   -3.8412 C   0  0  0  0  0  4           0  0  0
   -3.8438   -1.9826    9.8357 C   0  0  0  0  0  4           0  0  0
    3.2990   -0.7131   -4.0680 C   0  0  0  0  0  4           0  0  0
    1.1833   -1.9384   -4.1143 C   0  0  0  0  0  4           0  0  0
    1.4553   -0.0746   -2.5687 C   0  0  0  0  0  4           0  0  0
    1.2659   -2.5847   -5.5113 C   0  0  1  0  0  4           0  0  0
    1.9196   -0.7208   -1.2485 C   0  0  0  0  0  4           0  0  0
    0.5067   -3.9117   -5.5778 C   0  0  0  0  0  4           0  0  0
    0.7838   -1.6390   -6.6137 C   0  0  0  0  0  4           0  0  0
  1 13  1  0     0  0
  2 14  1  0     0  0
  3 15  1  0     0  0
  3 31  1  0     0  0
  4 30  2  0     0  0
  5 32  1  0     0  0
  6  7  1  0     0  0
  6 20  1  0     0  0
  6 33  1  0     0  0
  7 17  2  0     0  0
  8 16  1  0     0  0
  8 18  2  0     0  0
  9 16  2  0     0  0
  9 19  1  0     0  0
 10 17  1  0     0  0
 10 18  1  0     0  0
 11 21  1  0     0  0
 11 30  1  0     0  0
 12 34  1  0     0  0
 12 35  1  0     0  0
 12 36  1  0     0  0
 13 14  1  0     0  0
 13 21  2  0     0  0
 14 23  2  0     0  0
 15 24  2  0     0  0
 15 25  1  0     0  0
 17 26  1  0     0  0
 18 22  1  0     0  0
 19 22  2  0     0  0
 19 24  1  0     0  0
 20 26  2  0     0  0
 21 27  1  0     0  0
 22 28  1  0     0  0
 23 29  1  0     0  0
 25 28  2  0     0  0
 27 29  2  0     0  0
 30 33  1  0     0  0
 31 38  1  0     0  0
 32 34  1  0     0  0
 35 37  1  0     0  0
 36 38  1  0     0  0
 37 39  1  0     0  0
 37 40  1  0     0  0
M  END
> <standard_type>
pIC50

> <# Confs.>
25

> <canonical_smiles>
FC1=C(NC(CN2C=CC(NC3=NC=NC4=C3C=CC(OCCCN(CCO)CC(C)C)=C4)=N2)=O)C=CC=C1F

> <standard_relation>
=

> <Publication_ID>
nan

> <predicted_activity_value>
7.853871964321762

> <actual_activity_value>
8.045757490560675

> <Compound>
8

> <standard_units>
nM

> hash
5485682240152081559

$$$$
8_
XXILIB    08252103493D 0   0.00000     0.00000

 40 43  0     1  0            999 V2000
   -4.4780    5.4948   12.9335 F   0  0  0  0  0  1           0  0  0
   -3.4260    7.8397   13.7273 F   0  0  0  0  0  1           0  0  0
    0.0000    0.0000    0.0000 O   0  0  0  0  0  2           0  0  0
   -1.3088    2.9539    9.8227 O   0  0  0  0  0  2           0  0  0
    3.7527    4.8686   -0.9632 O   0  0  0  0  0  2           0  0  0
   -2.6923    0.6685    9.2221 N   0  0  0  0  0  3           0  0  0
   -2.8718    0.7461    7.8912 N   0  0  0  0  0  3           0  0  0
   -3.7632    0.6095    5.0671 N   0  0  0  0  0  3           0  0  0
   -3.6577    1.2166    2.7497 N   0  0  0  0  0  3           0  0  0
   -2.0339   -0.6633    6.1046 N   0  0  0  0  0  3           0  0  0
   -3.0251    3.7640   11.1660 N   0  0  0  0  0  3           0  0  0
    1.8506    3.0081   -2.4965 N   0  0  1  0  0  3           0  0  0
   -3.2592    5.8353   12.4908 C   0  0  0  0  0  4           0  0  0
   -2.7200    7.0487   12.9074 C   0  0  0  0  0  4           0  0  0
   -0.5871    0.0000    1.2340 C   0  0  0  0  0  4           0  0  0
   -4.2364    1.1960    3.9589 C   0  0  0  0  0  4           0  0  0
   -2.1769   -0.2953    7.4052 C   0  0  0  0  0  4           0  0  0
   -2.5791   -0.0424    4.9552 C   0  0  0  0  0  4           0  0  0
   -2.4757    0.5970    2.6402 C   0  0  0  0  0  4           0  0  0
   -1.9169   -0.3811    9.6129 C   0  0  0  0  0  4           0  0  0
   -2.5393    5.0008   11.6313 C   0  0  0  0  0  4           0  0  0
   -1.8633   -0.0584    3.7308 C   0  0  0  0  0  4           0  0  0
   -1.4595    7.4520   12.4829 C   0  0  0  0  0  4           0  0  0
   -1.8319    0.6062    1.4064 C   0  0  0  0  0  4           0  0  0
    0.0304   -0.6517    2.2903 C   0  0  0  0  0  4           0  0  0
   -1.5621   -1.0287    8.4549 C   0  0  0  0  0  4           0  0  0
   -1.2692    5.4078   11.2023 C   0  0  0  0  0  4           0  0  0
   -0.6004   -0.6738    3.5319 C   0  0  0  0  0  4           0  0  0
   -0.7329    6.6275   11.6270 C   0  0  0  0  0  4           0  0  0
   -2.4274    2.8430   10.3200 C   0  0  0  0  0  4           0  0  0
    1.4279    0.0000   -0.0000 C   0  0  0  0  0  4           0  0  0
    4.1643    3.5977   -1.4509 C   0  0  0  0  0  4           0  0  0
   -3.3158    1.6450   10.0869 C   0  0  0  0  0  4           0  0  0
    3.2990    3.1664   -2.6515 C   0  0  0  0  0  4           0  0  0
    1.1833    2.5939   -3.7359 C   0  0  0  0  0  4           0  0  0
    1.4553    2.1872   -1.3490 C   0  0  0  0  0  4           0  0  0
    1.2659    3.4806   -4.9941 C   0  0  1  0  0  4           0  0  0
    1.9196    0.7208   -1.2485 C   0  0  0  0  0  4           0  0  0
    0.5067    2.8747   -6.1765 C   0  0  0  0  0  4           0  0  0
    0.7838    4.9082   -4.7263 C   0  0  0  0  0  4           0  0  0
  1 13  1  0     0  0
  2 14  1  0     0  0
  3 15  1  0     0  0
  3 31  1  0     0  0
  4 30  2  0     0  0
  5 32  1  0     0  0
  6  7  1  0     0  0
  6 20  1  0     0  0
  6 33  1  0     0  0
  7 17  2  0     0  0
  8 16  1  0     0  0
  8 18  2  0     0  0
  9 16  2  0     0  0
  9 19  1  0     0  0
 10 17  1  0     0  0
 10 18  1  0     0  0
 11 21  1  0     0  0
 11 30  1  0     0  0
 12 34  1  0     0  0
 12 35  1  0     0  0
 12 36  1  0     0  0
 13 14  1  0     0  0
 13 21  2  0     0  0
 14 23  2  0     0  0
 15 24  2  0     0  0
 15 25  1  0     0  0
 17 26  1  0     0  0
 18 22  1  0     0  0
 19 22  2  0     0  0
 19 24  1  0     0  0
 20 26  2  0     0  0
 21 27  1  0     0  0
 22 28  1  0     0  0
 23 29  1  0     0  0
 25 28  2  0     0  0
 27 29  2  0     0  0
 30 33  1  0     0  0
 31 38  1  0     0  0
 32 34  1  0     0  0
 35 37  1  0     0  0
 36 38  1  0     0  0
 37 39  1  0     0  0
 37 40  1  0     0  0
M  END
> <standard_type>
pIC50

> <# Confs.>
25

> <canonical_smiles>
FC1=C(NC(CN2C=CC(NC3=NC=NC4=C3C=CC(OCCCN(CCO)CC(C)C)=C4)=N2)=O)C=CC=C1F

> <standard_relation>
=

> <Publication_ID>
nan

> <predicted_activity_value>
7.853871964321762

> <actual_activity_value>
8.045757490560675

> <Compound>
8

> <standard_units>
nM

> hash
5485682240152081559

$$$$
8_
XXILIB    08252103493D 0   0.00000     0.00000

 40 43  0     1  0            999 V2000
   -4.4780    5.4948   12.9335 F   0  0  0  0  0  1           0  0  0
   -3.4260    7.8397   13.7273 F   0  0  0  0  0  1           0  0  0
    0.0000    0.0000    0.0000 O   0  0  0  0  0  2           0  0  0
   -1.3088    2.9539    9.8227 O   0  0  0  0  0  2           0  0  0
    6.2495   -0.8264    0.1129 O   0  0  0  0  0  2           0  0  0
   -2.6923    0.6685    9.2221 N   0  0  0  0  0  3           0  0  0
   -2.8718    0.7461    7.8912 N   0  0  0  0  0  3           0  0  0
   -3.7632    0.6095    5.0671 N   0  0  0  0  0  3           0  0  0
   -3.6577    1.2166    2.7497 N   0  0  0  0  0  3           0  0  0
   -2.0339   -0.6633    6.1046 N   0  0  0  0  0  3           0  0  0
   -3.0251    3.7640   11.1660 N   0  0  0  0  0  3           0  0  0
    4.2453    1.4576   -0.3307 N   0  0  1  0  0  3           0  0  0
   -3.2592    5.8353   12.4908 C   0  0  0  0  0  4           0  0  0
   -2.7200    7.0487   12.9074 C   0  0  0  0  0  4           0  0  0
   -0.5871    0.0000    1.2340 C   0  0  0  0  0  4           0  0  0
   -4.2364    1.1960    3.9589 C   0  0  0  0  0  4           0  0  0
   -2.1769   -0.2953    7.4052 C   0  0  0  0  0  4           0  0  0
   -2.5791   -0.0424    4.9552 C   0  0  0  0  0  4           0  0  0
   -2.4757    0.5970    2.6402 C   0  0  0  0  0  4           0  0  0
   -1.9169   -0.3811    9.6129 C   0  0  0  0  0  4           0  0  0
   -2.5393    5.0008   11.6313 C   0  0  0  0  0  4           0  0  0
   -1.8633   -0.0584    3.7308 C   0  0  0  0  0  4           0  0  0
   -1.4595    7.4520   12.4829 C   0  0  0  0  0  4           0  0  0
   -1.8319    0.6062    1.4064 C   0  0  0  0  0  4           0  0  0
    0.0304   -0.6517    2.2903 C   0  0  0  0  0  4           0  0  0
   -1.5621   -1.0287    8.4549 C   0  0  0  0  0  4           0  0  0
   -1.2692    5.4078   11.2023 C   0  0  0  0  0  4           0  0  0
   -0.6004   -0.6738    3.5319 C   0  0  0  0  0  4           0  0  0
   -0.7329    6.6275   11.6270 C   0  0  0  0  0  4           0  0  0
   -2.4274    2.8430   10.3200 C   0  0  0  0  0  4           0  0  0
    1.4279   -0.0000   -0.0000 C   0  0  0  0  0  4           0  0  0
    6.4058    0.1281   -0.9296 C   0  0  0  0  0  4           0  0  0
   -3.3158    1.6450   10.0869 C   0  0  0  0  0  4           0  0  0
    5.6899    1.4465   -0.5756 C   0  0  0  0  0  4           0  0  0
    3.7288    2.7923   -0.0073 C   0  0  0  0  0  4           0  0  0
    3.4548    0.7899   -1.3682 C   0  0  0  0  0  4           0  0  0
    4.2586    3.5503    1.2259 C   0  0  1  0  0  4           0  0  0
    1.9196    0.7208   -1.2485 C   0  0  0  0  0  4           0  0  0
    3.5960    4.9200    1.3886 C   0  0  0  0  0  4           0  0  0
    4.1147    2.7325    2.5114 C   0  0  0  0  0  4           0  0  0
  1 13  1  0     0  0
  2 14  1  0     0  0
  3 15  1  0     0  0
  3 31  1  0     0  0
  4 30  2  0     0  0
  5 32  1  0     0  0
  6  7  1  0     0  0
  6 20  1  0     0  0
  6 33  1  0     0  0
  7 17  2  0     0  0
  8 16  1  0     0  0
  8 18  2  0     0  0
  9 16  2  0     0  0
  9 19  1  0     0  0
 10 17  1  0     0  0
 10 18  1  0     0  0
 11 21  1  0     0  0
 11 30  1  0     0  0
 12 34  1  0     0  0
 12 35  1  0     0  0
 12 36  1  0     0  0
 13 14  1  0     0  0
 13 21  2  0     0  0
 14 23  2  0     0  0
 15 24  2  0     0  0
 15 25  1  0     0  0
 17 26  1  0     0  0
 18 22  1  0     0  0
 19 22  2  0     0  0
 19 24  1  0     0  0
 20 26  2  0     0  0
 21 27  1  0     0  0
 22 28  1  0     0  0
 23 29  1  0     0  0
 25 28  2  0     0  0
 27 29  2  0     0  0
 30 33  1  0     0  0
 31 38  1  0     0  0
 32 34  1  0     0  0
 35 37  1  0     0  0
 36 38  1  0     0  0
 37 39  1  0     0  0
 37 40  1  0     0  0
M  END
> <standard_type>
pIC50

> <# Confs.>
25

> <canonical_smiles>
FC1=C(NC(CN2C=CC(NC3=NC=NC4=C3C=CC(OCCCN(CCO)CC(C)C)=C4)=N2)=O)C=CC=C1F

> <standard_relation>
=

> <Publication_ID>
nan

> <predicted_activity_value>
7.853871964321762

> <actual_activity_value>
8.045757490560675

> <Compound>
8

> <standard_units>
nM

> hash
5485682240152081559

$$$$
8_
XXILIB    08252103493D 0   0.00000     0.00000

 40 43  0     1  0            999 V2000
   -2.2305   -4.0578   14.0028 F   0  0  0  0  0  1           0  0  0
   -1.0933   -6.3483   14.8371 F   0  0  0  0  0  1           0  0  0
    0.0000    0.0000    0.0000 O   0  0  0  0  0  2           0  0  0
   -3.1142   -4.1083    8.9637 O   0  0  0  0  0  2           0  0  0
   -1.0038   -4.2423    0.1827 O   0  0  0  0  0  2           0  0  0
   -4.2433   -1.6602    8.4842 N   0  0  0  0  0  3           0  0  0
   -3.3681   -1.0634    7.6551 N   0  0  0  0  0  3           0  0  0
   -1.6325    0.7528    6.0809 N   0  0  0  0  0  3           0  0  0
    0.1673    1.2290    4.5696 N   0  0  0  0  0  3           0  0  0
   -3.6175   -0.3492    5.3512 N   0  0  0  0  0  3           0  0  0
   -2.8796   -3.6709   11.2352 N   0  0  0  0  0  3           0  0  0
    1.8239   -3.1496   -0.3074 N   0  0  1  0  0  3           0  0  0
   -1.9785   -5.0164   13.1001 C   0  0  0  0  0  4           0  0  0
   -1.3923   -6.1998   13.5391 C   0  0  0  0  0  4           0  0  0
   -0.5871    0.0000    1.2340 C   0  0  0  0  0  4           0  0  0
   -0.4234    1.2419    5.7731 C   0  0  0  0  0  4           0  0  0
   -4.0547   -0.9054    6.5118 C   0  0  0  0  0  4           0  0  0
   -2.3414    0.1944    5.0683 C   0  0  0  0  0  4           0  0  0
   -0.5172    0.6552    3.5720 C   0  0  0  0  0  4           0  0  0
   -5.4645   -1.8871    7.9250 C   0  0  0  0  0  4           0  0  0
   -2.2915   -4.8424   11.7492 C   0  0  0  0  0  4           0  0  0
   -1.8010    0.0982    3.7605 C   0  0  0  0  0  4           0  0  0
   -1.1111   -7.2292   12.6487 C   0  0  0  0  0  4           0  0  0
    0.0643    0.6062    2.3086 C   0  0  0  0  0  4           0  0  0
   -1.8493   -0.5501    1.3960 C   0  0  0  0  0  4           0  0  0
   -5.3762   -1.4099    6.6401 C   0  0  0  0  0  4           0  0  0
   -2.0069   -5.8795   10.8513 C   0  0  0  0  0  4           0  0  0
   -2.4483   -0.5077    2.6526 C   0  0  0  0  0  4           0  0  0
   -1.4199   -7.0668   11.3001 C   0  0  0  0  0  4           0  0  0
   -3.2408   -3.3631    9.9330 C   0  0  0  0  0  4           0  0  0
    1.4279    0.0000    0.0000 C   0  0  0  0  0  4           0  0  0
   -0.1747   -4.7267   -0.8663 C   0  0  0  0  0  4           0  0  0
   -3.8438   -1.9826    9.8357 C   0  0  0  0  0  4           0  0  0
    1.3139   -4.5045   -0.5335 C   0  0  0  0  0  4           0  0  0
    3.2589   -3.1207   -0.0027 C   0  0  0  0  0  4           0  0  0
    1.4553   -2.1872   -1.3490 C   0  0  0  0  0  4           0  0  0
    3.8046   -3.8676    1.2303 C   0  0  1  0  0  4           0  0  0
    1.9196   -0.7208   -1.2485 C   0  0  0  0  0  4           0  0  0
    5.3206   -3.7148    1.3720 C   0  0  0  0  0  4           0  0  0
    3.1027   -3.4397    2.5212 C   0  0  0  0  0  4           0  0  0
  1 13  1  0     0  0
  2 14  1  0     0  0
  3 15  1  0     0  0
  3 31  1  0     0  0
  4 30  2  0     0  0
  5 32  1  0     0  0
  6  7  1  0     0  0
  6 20  1  0     0  0
  6 33  1  0     0  0
  7 17  2  0     0  0
  8 16  1  0     0  0
  8 18  2  0     0  0
  9 16  2  0     0  0
  9 19  1  0     0  0
 10 17  1  0     0  0
 10 18  1  0     0  0
 11 21  1  0     0  0
 11 30  1  0     0  0
 12 34  1  0     0  0
 12 35  1  0     0  0
 12 36  1  0     0  0
 13 14  1  0     0  0
 13 21  2  0     0  0
 14 23  2  0     0  0
 15 24  2  0     0  0
 15 25  1  0     0  0
 17 26  1  0     0  0
 18 22  1  0     0  0
 19 22  2  0     0  0
 19 24  1  0     0  0
 20 26  2  0     0  0
 21 27  1  0     0  0
 22 28  1  0     0  0
 23 29  1  0     0  0
 25 28  2  0     0  0
 27 29  2  0     0  0
 30 33  1  0     0  0
 31 38  1  0     0  0
 32 34  1  0     0  0
 35 37  1  0     0  0
 36 38  1  0     0  0
 37 39  1  0     0  0
 37 40  1  0     0  0
M  END
> <standard_type>
pIC50

> <# Confs.>
25

> <canonical_smiles>
FC1=C(NC(CN2C=CC(NC3=NC=NC4=C3C=CC(OCCCN(CCO)CC(C)C)=C4)=N2)=O)C=CC=C1F

> <standard_relation>
=

> <Publication_ID>
nan

> <predicted_activity_value>
7.853871964321762

> <actual_activity_value>
8.045757490560675

> <Compound>
8

> <standard_units>
nM

> hash
5485682240152081559

$$$$
8_
XXILIB    08252103493D 0   0.00000     0.00000

 40 43  0     1  0            999 V2000
   -6.2975    4.2853   12.9873 F   0  0  0  0  0  1           0  0  0
   -8.7339    4.1085   14.1135 F   0  0  0  0  0  1           0  0  0
    0.0000    0.0000    0.0000 O   0  0  0  0  0  2           0  0  0
   -5.2025    0.1477   10.1842 O   0  0  0  0  0  2           0  0  0
    5.1880   -1.0866   -3.8362 O   0  0  0  0  0  2           0  0  0
   -2.6923    0.6685    9.2221 N   0  0  0  0  0  3           0  0  0
   -2.8718    0.7461    7.8912 N   0  0  0  0  0  3           0  0  0
   -3.7632    0.6095    5.0671 N   0  0  0  0  0  3           0  0  0
   -3.6577    1.2166    2.7497 N   0  0  0  0  0  3           0  0  0
   -2.0339   -0.6633    6.1046 N   0  0  0  0  0  3           0  0  0
   -5.2897    2.1621   11.3420 N   0  0  0  0  0  3           0  0  0
    4.0749    1.4537   -2.5179 N   0  0  1  0  0  3           0  0  0
   -7.0329    3.1877   12.7596 C   0  0  0  0  0  4           0  0  0
   -8.2934    3.1039   13.3434 C   0  0  0  0  0  4           0  0  0
   -0.5871    0.0000    1.2340 C   0  0  0  0  0  4           0  0  0
   -4.2364    1.1960    3.9589 C   0  0  0  0  0  4           0  0  0
   -2.1769   -0.2953    7.4052 C   0  0  0  0  0  4           0  0  0
   -2.5791   -0.0424    4.9552 C   0  0  0  0  0  4           0  0  0
   -2.4757    0.5970    2.6402 C   0  0  0  0  0  4           0  0  0
   -1.9169   -0.3811    9.6129 C   0  0  0  0  0  4           0  0  0
   -6.5554    2.1468   11.9584 C   0  0  0  0  0  4           0  0  0
   -1.8633   -0.0584    3.7308 C   0  0  0  0  0  4           0  0  0
   -9.1009    1.9913   13.1397 C   0  0  0  0  0  4           0  0  0
   -1.8319    0.6062    1.4064 C   0  0  0  0  0  4           0  0  0
    0.0304   -0.6517    2.2903 C   0  0  0  0  0  4           0  0  0
   -1.5621   -1.0287    8.4549 C   0  0  0  0  0  4           0  0  0
   -7.3688    1.0246   11.7541 C   0  0  0  0  0  4           0  0  0
   -0.6004   -0.6738    3.5319 C   0  0  0  0  0  4           0  0  0
   -8.6353    0.9485   12.3421 C   0  0  0  0  0  4           0  0  0
   -4.6919    1.2109   10.5302 C   0  0  0  0  0  4           0  0  0
    1.4279   -0.0000    0.0000 C   0  0  0  0  0  4           0  0  0
    3.8469   -0.6559   -4.0317 C   0  0  0  0  0  4           0  0  0
   -3.3158    1.6450   10.0869 C   0  0  0  0  0  4           0  0  0
    3.7238    0.8650   -3.8130 C   0  0  0  0  0  4           0  0  0
    3.8993    2.9100   -2.4837 C   0  0  0  0  0  4           0  0  0
    3.4548    0.7899   -1.3682 C   0  0  0  0  0  4           0  0  0
    4.6872    3.8087   -3.4572 C   0  0  1  0  0  4           0  0  0
    1.9196    0.7208   -1.2485 C   0  0  0  0  0  4           0  0  0
    4.3639    5.2916   -3.2620 C   0  0  0  0  0  4           0  0  0
    6.1969    3.5755   -3.3638 C   0  0  0  0  0  4           0  0  0
  1 13  1  0     0  0
  2 14  1  0     0  0
  3 15  1  0     0  0
  3 31  1  0     0  0
  4 30  2  0     0  0
  5 32  1  0     0  0
  6  7  1  0     0  0
  6 20  1  0     0  0
  6 33  1  0     0  0
  7 17  2  0     0  0
  8 16  1  0     0  0
  8 18  2  0     0  0
  9 16  2  0     0  0
  9 19  1  0     0  0
 10 17  1  0     0  0
 10 18  1  0     0  0
 11 21  1  0     0  0
 11 30  1  0     0  0
 12 34  1  0     0  0
 12 35  1  0     0  0
 12 36  1  0     0  0
 13 14  1  0     0  0
 13 21  2  0     0  0
 14 23  2  0     0  0
 15 24  2  0     0  0
 15 25  1  0     0  0
 17 26  1  0     0  0
 18 22  1  0     0  0
 19 22  2  0     0  0
 19 24  1  0     0  0
 20 26  2  0     0  0
 21 27  1  0     0  0
 22 28  1  0     0  0
 23 29  1  0     0  0
 25 28  2  0     0  0
 27 29  2  0     0  0
 30 33  1  0     0  0
 31 38  1  0     0  0
 32 34  1  0     0  0
 35 37  1  0     0  0
 36 38  1  0     0  0
 37 39  1  0     0  0
 37 40  1  0     0  0
M  END
> <standard_type>
pIC50

> <# Confs.>
25

> <canonical_smiles>
FC1=C(NC(CN2C=CC(NC3=NC=NC4=C3C=CC(OCCCN(CCO)CC(C)C)=C4)=N2)=O)C=CC=C1F

> <standard_relation>
=

> <Publication_ID>
nan

> <predicted_activity_value>
7.853871964321762

> <actual_activity_value>
8.045757490560675

> <Compound>
8

> <standard_units>
nM

> hash
5485682240152081559

$$$$
8_
XXILIB    08252103493D 0   0.00000     0.00000

 40 43  0     1  0            999 V2000
   -6.2975    4.2853   12.9873 F   0  0  0  0  0  1           0  0  0
   -8.7339    4.1085   14.1135 F   0  0  0  0  0  1           0  0  0
    0.0000    0.0000    0.0000 O   0  0  0  0  0  2           0  0  0
   -5.2025    0.1477   10.1842 O   0  0  0  0  0  2           0  0  0
   -0.9344    1.6753   -4.6528 O   0  0  0  0  0  2           0  0  0
   -2.6923    0.6685    9.2221 N   0  0  0  0  0  3           0  0  0
   -2.8718    0.7461    7.8912 N   0  0  0  0  0  3           0  0  0
   -3.7632    0.6095    5.0671 N   0  0  0  0  0  3           0  0  0
   -3.6577    1.2166    2.7497 N   0  0  0  0  0  3           0  0  0
   -2.0339   -0.6633    6.1046 N   0  0  0  0  0  3           0  0  0
   -5.2897    2.1621   11.3420 N   0  0  0  0  0  3           0  0  0
    1.8506    0.6580   -3.8534 N   0  0  1  0  0  3           0  0  0
   -7.0329    3.1877   12.7596 C   0  0  0  0  0  4           0  0  0
   -8.2934    3.1039   13.3434 C   0  0  0  0  0  4           0  0  0
   -0.5871    0.0000    1.2340 C   0  0  0  0  0  4           0  0  0
   -4.2364    1.1960    3.9589 C   0  0  0  0  0  4           0  0  0
   -2.1769   -0.2953    7.4052 C   0  0  0  0  0  4           0  0  0
   -2.5791   -0.0424    4.9552 C   0  0  0  0  0  4           0  0  0
   -2.4757    0.5970    2.6402 C   0  0  0  0  0  4           0  0  0
   -1.9169   -0.3811    9.6129 C   0  0  0  0  0  4           0  0  0
   -6.5554    2.1468   11.9584 C   0  0  0  0  0  4           0  0  0
   -1.8633   -0.0584    3.7308 C   0  0  0  0  0  4           0  0  0
   -9.1009    1.9913   13.1397 C   0  0  0  0  0  4           0  0  0
   -1.8319    0.6062    1.4064 C   0  0  0  0  0  4           0  0  0
    0.0304   -0.6517    2.2903 C   0  0  0  0  0  4           0  0  0
   -1.5621   -1.0287    8.4549 C   0  0  0  0  0  4           0  0  0
   -7.3688    1.0246   11.7541 C   0  0  0  0  0  4           0  0  0
   -0.6004   -0.6738    3.5319 C   0  0  0  0  0  4           0  0  0
   -8.6353    0.9485   12.3421 C   0  0  0  0  0  4           0  0  0
   -4.6919    1.2109   10.5302 C   0  0  0  0  0  4           0  0  0
    1.4279   -0.0000   -0.0000 C   0  0  0  0  0  4           0  0  0
   -0.0715    2.4177   -3.8004 C   0  0  0  0  0  4           0  0  0
   -3.3158    1.6450   10.0869 C   0  0  0  0  0  4           0  0  0
    1.4017    2.0389   -4.0497 C   0  0  0  0  0  4           0  0  0
    3.2789    0.4740   -4.1345 C   0  0  0  0  0  4           0  0  0
    1.4553    0.0746   -2.5687 C   0  0  0  0  0  4           0  0  0
    3.8393    0.7864   -5.5361 C   0  0  1  0  0  4           0  0  0
    1.9196    0.7208   -1.2485 C   0  0  0  0  0  4           0  0  0
    5.3454    0.5303   -5.6243 C   0  0  0  0  0  4           0  0  0
    3.1027    0.0185   -6.6361 C   0  0  0  0  0  4           0  0  0
  1 13  1  0     0  0
  2 14  1  0     0  0
  3 15  1  0     0  0
  3 31  1  0     0  0
  4 30  2  0     0  0
  5 32  1  0     0  0
  6  7  1  0     0  0
  6 20  1  0     0  0
  6 33  1  0     0  0
  7 17  2  0     0  0
  8 16  1  0     0  0
  8 18  2  0     0  0
  9 16  2  0     0  0
  9 19  1  0     0  0
 10 17  1  0     0  0
 10 18  1  0     0  0
 11 21  1  0     0  0
 11 30  1  0     0  0
 12 34  1  0     0  0
 12 35  1  0     0  0
 12 36  1  0     0  0
 13 14  1  0     0  0
 13 21  2  0     0  0
 14 23  2  0     0  0
 15 24  2  0     0  0
 15 25  1  0     0  0
 17 26  1  0     0  0
 18 22  1  0     0  0
 19 22  2  0     0  0
 19 24  1  0     0  0
 20 26  2  0     0  0
 21 27  1  0     0  0
 22 28  1  0     0  0
 23 29  1  0     0  0
 25 28  2  0     0  0
 27 29  2  0     0  0
 30 33  1  0     0  0
 31 38  1  0     0  0
 32 34  1  0     0  0
 35 37  1  0     0  0
 36 38  1  0     0  0
 37 39  1  0     0  0
 37 40  1  0     0  0
M  END
> <standard_type>
pIC50

> <# Confs.>
25

> <canonical_smiles>
FC1=C(NC(CN2C=CC(NC3=NC=NC4=C3C=CC(OCCCN(CCO)CC(C)C)=C4)=N2)=O)C=CC=C1F

> <standard_relation>
=

> <Publication_ID>
nan

> <predicted_activity_value>
7.853871964321762

> <actual_activity_value>
8.045757490560675

> <Compound>
8

> <standard_units>
nM

> hash
5485682240152081559

$$$$
8_
XXILIB    08252103493D 0   0.00000     0.00000

 40 43  0     1  0            999 V2000
   -6.2975    4.2853   12.9873 F   0  0  0  0  0  1           0  0  0
   -8.7339    4.1085   14.1135 F   0  0  0  0  0  1           0  0  0
    0.0000    0.0000    0.0000 O   0  0  0  0  0  2           0  0  0
   -5.2025    0.1477   10.1842 O   0  0  0  0  0  2           0  0  0
    3.7527    4.8686   -0.9632 O   0  0  0  0  0  2           0  0  0
   -2.6923    0.6685    9.2221 N   0  0  0  0  0  3           0  0  0
   -2.8718    0.7461    7.8912 N   0  0  0  0  0  3           0  0  0
   -3.7632    0.6095    5.0671 N   0  0  0  0  0  3           0  0  0
   -3.6577    1.2166    2.7497 N   0  0  0  0  0  3           0  0  0
   -2.0339   -0.6633    6.1046 N   0  0  0  0  0  3           0  0  0
   -5.2897    2.1621   11.3420 N   0  0  0  0  0  3           0  0  0
    1.8506    3.0081   -2.4965 N   0  0  1  0  0  3           0  0  0
   -7.0329    3.1877   12.7596 C   0  0  0  0  0  4           0  0  0
   -8.2934    3.1039   13.3434 C   0  0  0  0  0  4           0  0  0
   -0.5871    0.0000    1.2340 C   0  0  0  0  0  4           0  0  0
   -4.2364    1.1960    3.9589 C   0  0  0  0  0  4           0  0  0
   -2.1769   -0.2953    7.4052 C   0  0  0  0  0  4           0  0  0
   -2.5791   -0.0424    4.9552 C   0  0  0  0  0  4           0  0  0
   -2.4757    0.5970    2.6402 C   0  0  0  0  0  4           0  0  0
   -1.9169   -0.3811    9.6129 C   0  0  0  0  0  4           0  0  0
   -6.5554    2.1468   11.9584 C   0  0  0  0  0  4           0  0  0
   -1.8633   -0.0584    3.7308 C   0  0  0  0  0  4           0  0  0
   -9.1009    1.9913   13.1397 C   0  0  0  0  0  4           0  0  0
   -1.8319    0.6062    1.4064 C   0  0  0  0  0  4           0  0  0
    0.0304   -0.6517    2.2903 C   0  0  0  0  0  4           0  0  0
   -1.5621   -1.0287    8.4549 C   0  0  0  0  0  4           0  0  0
   -7.3688    1.0246   11.7541 C   0  0  0  0  0  4           0  0  0
   -0.6004   -0.6738    3.5319 C   0  0  0  0  0  4           0  0  0
   -8.6353    0.9485   12.3421 C   0  0  0  0  0  4           0  0  0
   -4.6919    1.2109   10.5302 C   0  0  0  0  0  4           0  0  0
    1.4279    0.0000   -0.0000 C   0  0  0  0  0  4           0  0  0
    4.1643    3.5977   -1.4509 C   0  0  0  0  0  4           0  0  0
   -3.3158    1.6450   10.0869 C   0  0  0  0  0  4           0  0  0
    3.2990    3.1664   -2.6515 C   0  0  0  0  0  4           0  0  0
    1.1833    2.5939   -3.7359 C   0  0  0  0  0  4           0  0  0
    1.4553    2.1872   -1.3490 C   0  0  0  0  0  4           0  0  0
    1.2659    3.4806   -4.9941 C   0  0  1  0  0  4           0  0  0
    1.9196    0.7208   -1.2485 C   0  0  0  0  0  4           0  0  0
    0.5067    2.8747   -6.1765 C   0  0  0  0  0  4           0  0  0
    0.7838    4.9082   -4.7263 C   0  0  0  0  0  4           0  0  0
  1 13  1  0     0  0
  2 14  1  0     0  0
  3 15  1  0     0  0
  3 31  1  0     0  0
  4 30  2  0     0  0
  5 32  1  0     0  0
  6  7  1  0     0  0
  6 20  1  0     0  0
  6 33  1  0     0  0
  7 17  2  0     0  0
  8 16  1  0     0  0
  8 18  2  0     0  0
  9 16  2  0     0  0
  9 19  1  0     0  0
 10 17  1  0     0  0
 10 18  1  0     0  0
 11 21  1  0     0  0
 11 30  1  0     0  0
 12 34  1  0     0  0
 12 35  1  0     0  0
 12 36  1  0     0  0
 13 14  1  0     0  0
 13 21  2  0     0  0
 14 23  2  0     0  0
 15 24  2  0     0  0
 15 25  1  0     0  0
 17 26  1  0     0  0
 18 22  1  0     0  0
 19 22  2  0     0  0
 19 24  1  0     0  0
 20 26  2  0     0  0
 21 27  1  0     0  0
 22 28  1  0     0  0
 23 29  1  0     0  0
 25 28  2  0     0  0
 27 29  2  0     0  0
 30 33  1  0     0  0
 31 38  1  0     0  0
 32 34  1  0     0  0
 35 37  1  0     0  0
 36 38  1  0     0  0
 37 39  1  0     0  0
 37 40  1  0     0  0
M  END
> <standard_type>
pIC50

> <# Confs.>
25

> <canonical_smiles>
FC1=C(NC(CN2C=CC(NC3=NC=NC4=C3C=CC(OCCCN(CCO)CC(C)C)=C4)=N2)=O)C=CC=C1F

> <standard_relation>
=

> <Publication_ID>
nan

> <predicted_activity_value>
7.853871964321762

> <actual_activity_value>
8.045757490560675

> <Compound>
8

> <standard_units>
nM

> hash
5485682240152081559

$$$$
8_
XXILIB    08252103493D 0   0.00000     0.00000

 40 43  0     1  0            999 V2000
   -4.4780    5.4948   12.9335 F   0  0  0  0  0  1           0  0  0
   -3.4260    7.8397   13.7273 F   0  0  0  0  0  1           0  0  0
    0.0000    0.0000    0.0000 O   0  0  0  0  0  2           0  0  0
   -1.3088    2.9539    9.8227 O   0  0  0  0  0  2           0  0  0
    3.8869   -1.8736   -4.9356 O   0  0  0  0  0  2           0  0  0
   -2.6923    0.6685    9.2221 N   0  0  0  0  0  3           0  0  0
   -2.8718    0.7461    7.8912 N   0  0  0  0  0  3           0  0  0
   -3.7632    0.6095    5.0671 N   0  0  0  0  0  3           0  0  0
   -3.6577    1.2166    2.7497 N   0  0  0  0  0  3           0  0  0
   -2.0339   -0.6633    6.1046 N   0  0  0  0  0  3           0  0  0
   -3.0251    3.7640   11.1660 N   0  0  0  0  0  3           0  0  0
    4.2453   -0.4424   -1.4276 N   0  0  1  0  0  3           0  0  0
   -3.2592    5.8353   12.4908 C   0  0  0  0  0  4           0  0  0
   -2.7200    7.0487   12.9074 C   0  0  0  0  0  4           0  0  0
   -0.5871    0.0000    1.2340 C   0  0  0  0  0  4           0  0  0
   -4.2364    1.1960    3.9589 C   0  0  0  0  0  4           0  0  0
   -2.1769   -0.2953    7.4052 C   0  0  0  0  0  4           0  0  0
   -2.5791   -0.0424    4.9552 C   0  0  0  0  0  4           0  0  0
   -2.4757    0.5970    2.6402 C   0  0  0  0  0  4           0  0  0
   -1.9169   -0.3811    9.6129 C   0  0  0  0  0  4           0  0  0
   -2.5393    5.0008   11.6313 C   0  0  0  0  0  4           0  0  0
   -1.8633   -0.0584    3.7308 C   0  0  0  0  0  4           0  0  0
   -1.4595    7.4520   12.4829 C   0  0  0  0  0  4           0  0  0
   -1.8319    0.6062    1.4064 C   0  0  0  0  0  4           0  0  0
    0.0304   -0.6517    2.2903 C   0  0  0  0  0  4           0  0  0
   -1.5621   -1.0287    8.4549 C   0  0  0  0  0  4           0  0  0
   -1.2692    5.4078   11.2023 C   0  0  0  0  0  4           0  0  0
   -0.6004   -0.6738    3.5319 C   0  0  0  0  0  4           0  0  0
   -0.7329    6.6275   11.6270 C   0  0  0  0  0  4           0  0  0
   -2.4274    2.8430   10.3200 C   0  0  0  0  0  4           0  0  0
    1.4279    0.0000   -0.0000 C   0  0  0  0  0  4           0  0  0
    4.2946   -0.8876   -3.9954 C   0  0  0  0  0  4           0  0  0
   -3.3158    1.6450   10.0869 C   0  0  0  0  0  4           0  0  0
    3.9193   -1.3112   -2.5616 C   0  0  0  0  0  4           0  0  0
    5.6844   -0.1899   -1.2941 C   0  0  0  0  0  4           0  0  0
    3.4548    0.7899   -1.3682 C   0  0  0  0  0  4           0  0  0
    6.6602   -1.3632   -1.0768 C   0  0  1  0  0  4           0  0  0
    1.9196    0.7208   -1.2485 C   0  0  0  0  0  4           0  0  0
    8.1115   -0.8918   -0.9625 C   0  0  0  0  0  4           0  0  0
    6.2787   -2.2133    0.1373 C   0  0  0  0  0  4           0  0  0
  1 13  1  0     0  0
  2 14  1  0     0  0
  3 15  1  0     0  0
  3 31  1  0     0  0
  4 30  2  0     0  0
  5 32  1  0     0  0
  6  7  1  0     0  0
  6 20  1  0     0  0
  6 33  1  0     0  0
  7 17  2  0     0  0
  8 16  1  0     0  0
  8 18  2  0     0  0
  9 16  2  0     0  0
  9 19  1  0     0  0
 10 17  1  0     0  0
 10 18  1  0     0  0
 11 21  1  0     0  0
 11 30  1  0     0  0
 12 34  1  0     0  0
 12 35  1  0     0  0
 12 36  1  0     0  0
 13 14  1  0     0  0
 13 21  2  0     0  0
 14 23  2  0     0  0
 15 24  2  0     0  0
 15 25  1  0     0  0
 17 26  1  0     0  0
 18 22  1  0     0  0
 19 22  2  0     0  0
 19 24  1  0     0  0
 20 26  2  0     0  0
 21 27  1  0     0  0
 22 28  1  0     0  0
 23 29  1  0     0  0
 25 28  2  0     0  0
 27 29  2  0     0  0
 30 33  1  0     0  0
 31 38  1  0     0  0
 32 34  1  0     0  0
 35 37  1  0     0  0
 36 38  1  0     0  0
 37 39  1  0     0  0
 37 40  1  0     0  0
M  END
> <standard_type>
pIC50

> <# Confs.>
25

> <canonical_smiles>
FC1=C(NC(CN2C=CC(NC3=NC=NC4=C3C=CC(OCCCN(CCO)CC(C)C)=C4)=N2)=O)C=CC=C1F

> <standard_relation>
=

> <Publication_ID>
nan

> <predicted_activity_value>
7.853871964321762

> <actual_activity_value>
8.045757490560675

> <Compound>
8

> <standard_units>
nM

> hash
5485682240152081559

$$$$
8_
XXILIB    08252103493D 0   0.00000     0.00000

 40 43  0     1  0            999 V2000
   -6.2975    4.2853   12.9873 F   0  0  0  0  0  1           0  0  0
   -8.7339    4.1085   14.1135 F   0  0  0  0  0  1           0  0  0
    0.0000    0.0000    0.0000 O   0  0  0  0  0  2           0  0  0
   -5.2025    0.1477   10.1842 O   0  0  0  0  0  2           0  0  0
    6.2495   -0.8264    0.1129 O   0  0  0  0  0  2           0  0  0
   -2.6923    0.6685    9.2221 N   0  0  0  0  0  3           0  0  0
   -2.8718    0.7461    7.8912 N   0  0  0  0  0  3           0  0  0
   -3.7632    0.6095    5.0671 N   0  0  0  0  0  3           0  0  0
   -3.6577    1.2166    2.7497 N   0  0  0  0  0  3           0  0  0
   -2.0339   -0.6633    6.1046 N   0  0  0  0  0  3           0  0  0
   -5.2897    2.1621   11.3420 N   0  0  0  0  0  3           0  0  0
    4.2453    1.4576   -0.3307 N   0  0  1  0  0  3           0  0  0
   -7.0329    3.1877   12.7596 C   0  0  0  0  0  4           0  0  0
   -8.2934    3.1039   13.3434 C   0  0  0  0  0  4           0  0  0
   -0.5871    0.0000    1.2340 C   0  0  0  0  0  4           0  0  0
   -4.2364    1.1960    3.9589 C   0  0  0  0  0  4           0  0  0
   -2.1769   -0.2953    7.4052 C   0  0  0  0  0  4           0  0  0
   -2.5791   -0.0424    4.9552 C   0  0  0  0  0  4           0  0  0
   -2.4757    0.5970    2.6402 C   0  0  0  0  0  4           0  0  0
   -1.9169   -0.3811    9.6129 C   0  0  0  0  0  4           0  0  0
   -6.5554    2.1468   11.9584 C   0  0  0  0  0  4           0  0  0
   -1.8633   -0.0584    3.7308 C   0  0  0  0  0  4           0  0  0
   -9.1009    1.9913   13.1397 C   0  0  0  0  0  4           0  0  0
   -1.8319    0.6062    1.4064 C   0  0  0  0  0  4           0  0  0
    0.0304   -0.6517    2.2903 C   0  0  0  0  0  4           0  0  0
   -1.5621   -1.0287    8.4549 C   0  0  0  0  0  4           0  0  0
   -7.3688    1.0246   11.7541 C   0  0  0  0  0  4           0  0  0
   -0.6004   -0.6738    3.5319 C   0  0  0  0  0  4           0  0  0
   -8.6353    0.9485   12.3421 C   0  0  0  0  0  4           0  0  0
   -4.6919    1.2109   10.5302 C   0  0  0  0  0  4           0  0  0
    1.4279   -0.0000   -0.0000 C   0  0  0  0  0  4           0  0  0
    6.4058    0.1281   -0.9296 C   0  0  0  0  0  4           0  0  0
   -3.3158    1.6450   10.0869 C   0  0  0  0  0  4           0  0  0
    5.6899    1.4465   -0.5756 C   0  0  0  0  0  4           0  0  0
    3.7288    2.7923   -0.0073 C   0  0  0  0  0  4           0  0  0
    3.4548    0.7899   -1.3682 C   0  0  0  0  0  4           0  0  0
    4.2586    3.5503    1.2259 C   0  0  1  0  0  4           0  0  0
    1.9196    0.7208   -1.2485 C   0  0  0  0  0  4           0  0  0
    3.5960    4.9200    1.3886 C   0  0  0  0  0  4           0  0  0
    4.1147    2.7325    2.5114 C   0  0  0  0  0  4           0  0  0
  1 13  1  0     0  0
  2 14  1  0     0  0
  3 15  1  0     0  0
  3 31  1  0     0  0
  4 30  2  0     0  0
  5 32  1  0     0  0
  6  7  1  0     0  0
  6 20  1  0     0  0
  6 33  1  0     0  0
  7 17  2  0     0  0
  8 16  1  0     0  0
  8 18  2  0     0  0
  9 16  2  0     0  0
  9 19  1  0     0  0
 10 17  1  0     0  0
 10 18  1  0     0  0
 11 21  1  0     0  0
 11 30  1  0     0  0
 12 34  1  0     0  0
 12 35  1  0     0  0
 12 36  1  0     0  0
 13 14  1  0     0  0
 13 21  2  0     0  0
 14 23  2  0     0  0
 15 24  2  0     0  0
 15 25  1  0     0  0
 17 26  1  0     0  0
 18 22  1  0     0  0
 19 22  2  0     0  0
 19 24  1  0     0  0
 20 26  2  0     0  0
 21 27  1  0     0  0
 22 28  1  0     0  0
 23 29  1  0     0  0
 25 28  2  0     0  0
 27 29  2  0     0  0
 30 33  1  0     0  0
 31 38  1  0     0  0
 32 34  1  0     0  0
 35 37  1  0     0  0
 36 38  1  0     0  0
 37 39  1  0     0  0
 37 40  1  0     0  0
M  END
> <standard_type>
pIC50

> <# Confs.>
25

> <canonical_smiles>
FC1=C(NC(CN2C=CC(NC3=NC=NC4=C3C=CC(OCCCN(CCO)CC(C)C)=C4)=N2)=O)C=CC=C1F

> <standard_relation>
=

> <Publication_ID>
nan

> <predicted_activity_value>
7.853871964321762

> <actual_activity_value>
8.045757490560675

> <Compound>
8

> <standard_units>
nM

> hash
5485682240152081559

$$$$
8_
XXILIB    08252103493D 0   0.00000     0.00000

 40 43  0     1  0            999 V2000
   -2.2305   -4.0578   14.0028 F   0  0  0  0  0  1           0  0  0
   -1.0933   -6.3483   14.8371 F   0  0  0  0  0  1           0  0  0
    0.0000    0.0000    0.0000 O   0  0  0  0  0  2           0  0  0
   -3.1142   -4.1083    8.9637 O   0  0  0  0  0  2           0  0  0
    6.2495   -0.3155    0.7722 O   0  0  0  0  0  2           0  0  0
   -4.2433   -1.6602    8.4842 N   0  0  0  0  0  3           0  0  0
   -3.3681   -1.0634    7.6551 N   0  0  0  0  0  3           0  0  0
   -1.6325    0.7528    6.0809 N   0  0  0  0  0  3           0  0  0
    0.1673    1.2290    4.5696 N   0  0  0  0  0  3           0  0  0
   -3.6175   -0.3492    5.3512 N   0  0  0  0  0  3           0  0  0
   -2.8796   -3.6709   11.2352 N   0  0  0  0  0  3           0  0  0
    4.2453    0.4424   -1.4276 N   0  0  1  0  0  3           0  0  0
   -1.9785   -5.0164   13.1001 C   0  0  0  0  0  4           0  0  0
   -1.3923   -6.1998   13.5391 C   0  0  0  0  0  4           0  0  0
   -0.5871    0.0000    1.2340 C   0  0  0  0  0  4           0  0  0
   -0.4234    1.2419    5.7731 C   0  0  0  0  0  4           0  0  0
   -4.0547   -0.9054    6.5118 C   0  0  0  0  0  4           0  0  0
   -2.3414    0.1944    5.0683 C   0  0  0  0  0  4           0  0  0
   -0.5172    0.6552    3.5720 C   0  0  0  0  0  4           0  0  0
   -5.4645   -1.8871    7.9250 C   0  0  0  0  0  4           0  0  0
   -2.2915   -4.8424   11.7492 C   0  0  0  0  0  4           0  0  0
   -1.8010    0.0982    3.7605 C   0  0  0  0  0  4           0  0  0
   -1.1111   -7.2292   12.6487 C   0  0  0  0  0  4           0  0  0
    0.0643    0.6062    2.3086 C   0  0  0  0  0  4           0  0  0
   -1.8493   -0.5501    1.3960 C   0  0  0  0  0  4           0  0  0
   -5.3762   -1.4099    6.6401 C   0  0  0  0  0  4           0  0  0
   -2.0069   -5.8795   10.8513 C   0  0  0  0  0  4           0  0  0
   -2.4483   -0.5077    2.6526 C   0  0  0  0  0  4           0  0  0
   -1.4199   -7.0668   11.3001 C   0  0  0  0  0  4           0  0  0
   -3.2408   -3.3631    9.9330 C   0  0  0  0  0  4           0  0  0
    1.4279   -0.0000    0.0000 C   0  0  0  0  0  4           0  0  0
    6.4058   -0.7410   -0.5758 C   0  0  0  0  0  4           0  0  0
   -3.8438   -1.9826    9.8357 C   0  0  0  0  0  4           0  0  0
    5.6899    0.2248   -1.5405 C   0  0  0  0  0  4           0  0  0
    3.7288    1.3899   -2.4218 C   0  0  0  0  0  4           0  0  0
    3.4548   -0.7899   -1.3682 C   0  0  0  0  0  4           0  0  0
    4.2586    2.8368   -2.4617 C   0  0  1  0  0  4           0  0  0
    1.9196   -0.7208   -1.2485 C   0  0  0  0  0  4           0  0  0
    3.5960    3.6626   -3.5666 C   0  0  0  0  0  4           0  0  0
    4.1147    3.5412   -1.1107 C   0  0  0  0  0  4           0  0  0
  1 13  1  0     0  0
  2 14  1  0     0  0
  3 15  1  0     0  0
  3 31  1  0     0  0
  4 30  2  0     0  0
  5 32  1  0     0  0
  6  7  1  0     0  0
  6 20  1  0     0  0
  6 33  1  0     0  0
  7 17  2  0     0  0
  8 16  1  0     0  0
  8 18  2  0     0  0
  9 16  2  0     0  0
  9 19  1  0     0  0
 10 17  1  0     0  0
 10 18  1  0     0  0
 11 21  1  0     0  0
 11 30  1  0     0  0
 12 34  1  0     0  0
 12 35  1  0     0  0
 12 36  1  0     0  0
 13 14  1  0     0  0
 13 21  2  0     0  0
 14 23  2  0     0  0
 15 24  2  0     0  0
 15 25  1  0     0  0
 17 26  1  0     0  0
 18 22  1  0     0  0
 19 22  2  0     0  0
 19 24  1  0     0  0
 20 26  2  0     0  0
 21 27  1  0     0  0
 22 28  1  0     0  0
 23 29  1  0     0  0
 25 28  2  0     0  0
 27 29  2  0     0  0
 30 33  1  0     0  0
 31 38  1  0     0  0
 32 34  1  0     0  0
 35 37  1  0     0  0
 36 38  1  0     0  0
 37 39  1  0     0  0
 37 40  1  0     0  0
M  END
> <standard_type>
pIC50

> <# Confs.>
25

> <canonical_smiles>
FC1=C(NC(CN2C=CC(NC3=NC=NC4=C3C=CC(OCCCN(CCO)CC(C)C)=C4)=N2)=O)C=CC=C1F

> <standard_relation>
=

> <Publication_ID>
nan

> <predicted_activity_value>
7.853871964321762

> <actual_activity_value>
8.045757490560675

> <Compound>
8

> <standard_units>
nM

> hash
5485682240152081559

$$$$
8_
XXILIB    08252103493D 0   0.00000     0.00000

 40 43  0     1  0            999 V2000
   -2.2305   -4.0578   14.0028 F   0  0  0  0  0  1           0  0  0
   -1.0933   -6.3483   14.8371 F   0  0  0  0  0  1           0  0  0
    0.0000    0.0000    0.0000 O   0  0  0  0  0  2           0  0  0
   -3.1142   -4.1083    8.9637 O   0  0  0  0  0  2           0  0  0
   -0.9344   -0.8755   -4.8671 O   0  0  0  0  0  2           0  0  0
   -4.2433   -1.6602    8.4842 N   0  0  0  0  0  3           0  0  0
   -3.3681   -1.0634    7.6551 N   0  0  0  0  0  3           0  0  0
   -1.6325    0.7528    6.0809 N   0  0  0  0  0  3           0  0  0
    0.1673    1.2290    4.5696 N   0  0  0  0  0  3           0  0  0
   -3.6175   -0.3492    5.3512 N   0  0  0  0  0  3           0  0  0
   -2.8796   -3.6709   11.2352 N   0  0  0  0  0  3           0  0  0
    1.8506   -1.3568   -3.6661 N   0  0  1  0  0  3           0  0  0
   -1.9785   -5.0164   13.1001 C   0  0  0  0  0  4           0  0  0
   -1.3923   -6.1998   13.5391 C   0  0  0  0  0  4           0  0  0
   -0.5871    0.0000    1.2340 C   0  0  0  0  0  4           0  0  0
   -0.4234    1.2419    5.7731 C   0  0  0  0  0  4           0  0  0
   -4.0547   -0.9054    6.5118 C   0  0  0  0  0  4           0  0  0
   -2.3414    0.1944    5.0683 C   0  0  0  0  0  4           0  0  0
   -0.5172    0.6552    3.5720 C   0  0  0  0  0  4           0  0  0
   -5.4645   -1.8871    7.9250 C   0  0  0  0  0  4           0  0  0
   -2.2915   -4.8424   11.7492 C   0  0  0  0  0  4           0  0  0
   -1.8010    0.0982    3.7605 C   0  0  0  0  0  4           0  0  0
   -1.1111   -7.2292   12.6487 C   0  0  0  0  0  4           0  0  0
    0.0643    0.6062    2.3086 C   0  0  0  0  0  4           0  0  0
   -1.8493   -0.5501    1.3960 C   0  0  0  0  0  4           0  0  0
   -5.3762   -1.4099    6.6401 C   0  0  0  0  0  4           0  0  0
   -2.0069   -5.8795   10.8513 C   0  0  0  0  0  4           0  0  0
   -2.4483   -0.5077    2.6526 C   0  0  0  0  0  4           0  0  0
   -1.4199   -7.0668   11.3001 C   0  0  0  0  0  4           0  0  0
   -3.2408   -3.3631    9.9330 C   0  0  0  0  0  4           0  0  0
    1.4279   -0.0000    0.0000 C   0  0  0  0  0  4           0  0  0
   -0.0715    0.1936   -4.5001 C   0  0  0  0  0  4           0  0  0
   -3.8438   -1.9826    9.8357 C   0  0  0  0  0  4           0  0  0
    1.4017   -0.2591   -4.5266 C   0  0  0  0  0  4           0  0  0
    3.2789   -1.6568   -3.8176 C   0  0  0  0  0  4           0  0  0
    1.4553   -1.2197   -2.2619 C   0  0  0  0  0  4           0  0  0
    3.8393   -2.0870   -5.1875 C   0  0  1  0  0  4           0  0  0
    1.9196    0.0000   -1.4417 C   0  0  0  0  0  4           0  0  0
    5.3454   -2.3529   -5.1360 C   0  0  0  0  0  4           0  0  0
    3.1027   -3.3020   -5.7563 C   0  0  0  0  0  4           0  0  0
  1 13  1  0     0  0
  2 14  1  0     0  0
  3 15  1  0     0  0
  3 31  1  0     0  0
  4 30  2  0     0  0
  5 32  1  0     0  0
  6  7  1  0     0  0
  6 20  1  0     0  0
  6 33  1  0     0  0
  7 17  2  0     0  0
  8 16  1  0     0  0
  8 18  2  0     0  0
  9 16  2  0     0  0
  9 19  1  0     0  0
 10 17  1  0     0  0
 10 18  1  0     0  0
 11 21  1  0     0  0
 11 30  1  0     0  0
 12 34  1  0     0  0
 12 35  1  0     0  0
 12 36  1  0     0  0
 13 14  1  0     0  0
 13 21  2  0     0  0
 14 23  2  0     0  0
 15 24  2  0     0  0
 15 25  1  0     0  0
 17 26  1  0     0  0
 18 22  1  0     0  0
 19 22  2  0     0  0
 19 24  1  0     0  0
 20 26  2  0     0  0
 21 27  1  0     0  0
 22 28  1  0     0  0
 23 29  1  0     0  0
 25 28  2  0     0  0
 27 29  2  0     0  0
 30 33  1  0     0  0
 31 38  1  0     0  0
 32 34  1  0     0  0
 35 37  1  0     0  0
 36 38  1  0     0  0
 37 39  1  0     0  0
 37 40  1  0     0  0
M  END
> <standard_type>
pIC50

> <# Confs.>
25

> <canonical_smiles>
FC1=C(NC(CN2C=CC(NC3=NC=NC4=C3C=CC(OCCCN(CCO)CC(C)C)=C4)=N2)=O)C=CC=C1F

> <standard_relation>
=

> <Publication_ID>
nan

> <predicted_activity_value>
7.853871964321762

> <actual_activity_value>
8.045757490560675

> <Compound>
8

> <standard_units>
nM

> hash
5485682240152081559

$$$$
8_
XXILIB    08252103493D 0   0.00000     0.00000

 40 43  0     1  0            999 V2000
   -4.4780    5.4948   12.9335 F   0  0  0  0  0  1           0  0  0
   -3.4260    7.8397   13.7273 F   0  0  0  0  0  1           0  0  0
    0.0000    0.0000    0.0000 O   0  0  0  0  0  2           0  0  0
   -1.3088    2.9539    9.8227 O   0  0  0  0  0  2           0  0  0
   -1.0038   -2.2794   -3.5826 O   0  0  0  0  0  2           0  0  0
   -2.6923    0.6685    9.2221 N   0  0  0  0  0  3           0  0  0
   -2.8718    0.7461    7.8912 N   0  0  0  0  0  3           0  0  0
   -3.7632    0.6095    5.0671 N   0  0  0  0  0  3           0  0  0
   -3.6577    1.2166    2.7497 N   0  0  0  0  0  3           0  0  0
   -2.0339   -0.6633    6.1046 N   0  0  0  0  0  3           0  0  0
   -3.0251    3.7640   11.1660 N   0  0  0  0  0  3           0  0  0
    1.8239   -1.3086   -2.8813 N   0  0  1  0  0  3           0  0  0
   -3.2592    5.8353   12.4908 C   0  0  0  0  0  4           0  0  0
   -2.7200    7.0487   12.9074 C   0  0  0  0  0  4           0  0  0
   -0.5871    0.0000    1.2340 C   0  0  0  0  0  4           0  0  0
   -4.2364    1.1960    3.9589 C   0  0  0  0  0  4           0  0  0
   -2.1769   -0.2953    7.4052 C   0  0  0  0  0  4           0  0  0
   -2.5791   -0.0424    4.9552 C   0  0  0  0  0  4           0  0  0
   -2.4757    0.5970    2.6402 C   0  0  0  0  0  4           0  0  0
   -1.9169   -0.3811    9.6129 C   0  0  0  0  0  4           0  0  0
   -2.5393    5.0008   11.6313 C   0  0  0  0  0  4           0  0  0
   -1.8633   -0.0584    3.7308 C   0  0  0  0  0  4           0  0  0
   -1.4595    7.4520   12.4829 C   0  0  0  0  0  4           0  0  0
   -1.8319    0.6062    1.4064 C   0  0  0  0  0  4           0  0  0
    0.0304   -0.6517    2.2903 C   0  0  0  0  0  4           0  0  0
   -1.5621   -1.0287    8.4549 C   0  0  0  0  0  4           0  0  0
   -1.2692    5.4078   11.2023 C   0  0  0  0  0  4           0  0  0
   -0.6004   -0.6738    3.5319 C   0  0  0  0  0  4           0  0  0
   -0.7329    6.6275   11.6270 C   0  0  0  0  0  4           0  0  0
   -2.4274    2.8430   10.3200 C   0  0  0  0  0  4           0  0  0
    1.4279    0.0000    0.0000 C   0  0  0  0  0  4           0  0  0
   -0.1747   -1.6131   -4.5266 C   0  0  0  0  0  4           0  0  0
   -3.3158    1.6450   10.0869 C   0  0  0  0  0  4           0  0  0
    1.3139   -1.7903   -4.1678 C   0  0  0  0  0  4           0  0  0
    3.2589   -1.5580   -2.7039 C   0  0  0  0  0  4           0  0  0
    1.4553    0.0746   -2.5687 C   0  0  0  0  0  4           0  0  0
    3.8046   -2.9993   -2.7343 C   0  0  1  0  0  4           0  0  0
    1.9196    0.7208   -1.2485 C   0  0  0  0  0  4           0  0  0
    5.3206   -3.0456   -2.5312 C   0  0  0  0  0  4           0  0  0
    3.1027   -3.9032   -1.7183 C   0  0  0  0  0  4           0  0  0
  1 13  1  0     0  0
  2 14  1  0     0  0
  3 15  1  0     0  0
  3 31  1  0     0  0
  4 30  2  0     0  0
  5 32  1  0     0  0
  6  7  1  0     0  0
  6 20  1  0     0  0
  6 33  1  0     0  0
  7 17  2  0     0  0
  8 16  1  0     0  0
  8 18  2  0     0  0
  9 16  2  0     0  0
  9 19  1  0     0  0
 10 17  1  0     0  0
 10 18  1  0     0  0
 11 21  1  0     0  0
 11 30  1  0     0  0
 12 34  1  0     0  0
 12 35  1  0     0  0
 12 36  1  0     0  0
 13 14  1  0     0  0
 13 21  2  0     0  0
 14 23  2  0     0  0
 15 24  2  0     0  0
 15 25  1  0     0  0
 17 26  1  0     0  0
 18 22  1  0     0  0
 19 22  2  0     0  0
 19 24  1  0     0  0
 20 26  2  0     0  0
 21 27  1  0     0  0
 22 28  1  0     0  0
 23 29  1  0     0  0
 25 28  2  0     0  0
 27 29  2  0     0  0
 30 33  1  0     0  0
 31 38  1  0     0  0
 32 34  1  0     0  0
 35 37  1  0     0  0
 36 38  1  0     0  0
 37 39  1  0     0  0
 37 40  1  0     0  0
M  END
> <standard_type>
pIC50

> <# Confs.>
25

> <canonical_smiles>
FC1=C(NC(CN2C=CC(NC3=NC=NC4=C3C=CC(OCCCN(CCO)CC(C)C)=C4)=N2)=O)C=CC=C1F

> <standard_relation>
=

> <Publication_ID>
nan

> <predicted_activity_value>
7.853871964321762

> <actual_activity_value>
8.045757490560675

> <Compound>
8

> <standard_units>
nM

> hash
5485682240152081559

$$$$
8_
XXILIB    08252103493D 0   0.00000     0.00000

 40 43  0     1  0            999 V2000
   -2.2305   -4.0578   14.0028 F   0  0  0  0  0  1           0  0  0
   -1.0933   -6.3483   14.8371 F   0  0  0  0  0  1           0  0  0
    0.0000    0.0000    0.0000 O   0  0  0  0  0  2           0  0  0
   -3.1142   -4.1083    8.9637 O   0  0  0  0  0  2           0  0  0
    3.8869   -5.2112   -0.8453 O   0  0  0  0  0  2           0  0  0
   -4.2433   -1.6602    8.4842 N   0  0  0  0  0  3           0  0  0
   -3.3681   -1.0634    7.6551 N   0  0  0  0  0  3           0  0  0
   -1.6325    0.7528    6.0809 N   0  0  0  0  0  3           0  0  0
    0.1673    1.2290    4.5696 N   0  0  0  0  0  3           0  0  0
   -3.6175   -0.3492    5.3512 N   0  0  0  0  0  3           0  0  0
   -2.8796   -3.6709   11.2352 N   0  0  0  0  0  3           0  0  0
    4.2453   -1.4576   -0.3307 N   0  0  1  0  0  3           0  0  0
   -1.9785   -5.0164   13.1001 C   0  0  0  0  0  4           0  0  0
   -1.3923   -6.1998   13.5391 C   0  0  0  0  0  4           0  0  0
   -0.5871    0.0000    1.2340 C   0  0  0  0  0  4           0  0  0
   -0.4234    1.2419    5.7731 C   0  0  0  0  0  4           0  0  0
   -4.0547   -0.9054    6.5118 C   0  0  0  0  0  4           0  0  0
   -2.3414    0.1944    5.0683 C   0  0  0  0  0  4           0  0  0
   -0.5172    0.6552    3.5720 C   0  0  0  0  0  4           0  0  0
   -5.4645   -1.8871    7.9250 C   0  0  0  0  0  4           0  0  0
   -2.2915   -4.8424   11.7492 C   0  0  0  0  0  4           0  0  0
   -1.8010    0.0982    3.7605 C   0  0  0  0  0  4           0  0  0
   -1.1111   -7.2292   12.6487 C   0  0  0  0  0  4           0  0  0
    0.0643    0.6062    2.3086 C   0  0  0  0  0  4           0  0  0
   -1.8493   -0.5501    1.3960 C   0  0  0  0  0  4           0  0  0
   -5.3762   -1.4099    6.6401 C   0  0  0  0  0  4           0  0  0
   -2.0069   -5.8795   10.8513 C   0  0  0  0  0  4           0  0  0
   -2.4483   -0.5077    2.6526 C   0  0  0  0  0  4           0  0  0
   -1.4199   -7.0668   11.3001 C   0  0  0  0  0  4           0  0  0
   -3.2408   -3.3631    9.9330 C   0  0  0  0  0  4           0  0  0
    1.4279   -0.0000   -0.0000 C   0  0  0  0  0  4           0  0  0
    4.2946   -3.9039   -1.2290 C   0  0  0  0  0  4           0  0  0
   -3.8438   -1.9826    9.8357 C   0  0  0  0  0  4           0  0  0
    3.9193   -2.8740   -0.1452 C   0  0  0  0  0  4           0  0  0
    5.6844   -1.2156   -0.4826 C   0  0  0  0  0  4           0  0  0
    3.4548   -0.7899   -1.3682 C   0  0  0  0  0  4           0  0  0
    6.6602   -1.6141    0.6422 C   0  0  1  0  0  4           0  0  0
    1.9196   -0.7208   -1.2485 C   0  0  0  0  0  4           0  0  0
    8.1115   -1.2795    0.2910 C   0  0  0  0  0  4           0  0  0
    6.2787   -0.9878    1.9855 C   0  0  0  0  0  4           0  0  0
  1 13  1  0     0  0
  2 14  1  0     0  0
  3 15  1  0     0  0
  3 31  1  0     0  0
  4 30  2  0     0  0
  5 32  1  0     0  0
  6  7  1  0     0  0
  6 20  1  0     0  0
  6 33  1  0     0  0
  7 17  2  0     0  0
  8 16  1  0     0  0
  8 18  2  0     0  0
  9 16  2  0     0  0
  9 19  1  0     0  0
 10 17  1  0     0  0
 10 18  1  0     0  0
 11 21  1  0     0  0
 11 30  1  0     0  0
 12 34  1  0     0  0
 12 35  1  0     0  0
 12 36  1  0     0  0
 13 14  1  0     0  0
 13 21  2  0     0  0
 14 23  2  0     0  0
 15 24  2  0     0  0
 15 25  1  0     0  0
 17 26  1  0     0  0
 18 22  1  0     0  0
 19 22  2  0     0  0
 19 24  1  0     0  0
 20 26  2  0     0  0
 21 27  1  0     0  0
 22 28  1  0     0  0
 23 29  1  0     0  0
 25 28  2  0     0  0
 27 29  2  0     0  0
 30 33  1  0     0  0
 31 38  1  0     0  0
 32 34  1  0     0  0
 35 37  1  0     0  0
 36 38  1  0     0  0
 37 39  1  0     0  0
 37 40  1  0     0  0
M  END
> <standard_type>
pIC50

> <# Confs.>
25

> <canonical_smiles>
FC1=C(NC(CN2C=CC(NC3=NC=NC4=C3C=CC(OCCCN(CCO)CC(C)C)=C4)=N2)=O)C=CC=C1F

> <standard_relation>
=

> <Publication_ID>
nan

> <predicted_activity_value>
7.853871964321762

> <actual_activity_value>
8.045757490560675

> <Compound>
8

> <standard_units>
nM

> hash
5485682240152081559

$$$$
8_
XXILIB    08252103493D 0   0.00000     0.00000

 40 43  0     1  0            999 V2000
   -2.2305   -4.0578   14.0028 F   0  0  0  0  0  1           0  0  0
   -1.0933   -6.3483   14.8371 F   0  0  0  0  0  1           0  0  0
    0.0000    0.0000    0.0000 O   0  0  0  0  0  2           0  0  0
   -3.1142   -4.1083    8.9637 O   0  0  0  0  0  2           0  0  0
    5.1880   -2.8592   -2.7789 O   0  0  0  0  0  2           0  0  0
   -4.2433   -1.6602    8.4842 N   0  0  0  0  0  3           0  0  0
   -3.3681   -1.0634    7.6551 N   0  0  0  0  0  3           0  0  0
   -1.6325    0.7528    6.0809 N   0  0  0  0  0  3           0  0  0
    0.1673    1.2290    4.5696 N   0  0  0  0  0  3           0  0  0
   -3.6175   -0.3492    5.3512 N   0  0  0  0  0  3           0  0  0
   -2.8796   -3.6709   11.2352 N   0  0  0  0  0  3           0  0  0
    4.0749    0.0000   -2.9075 N   0  0  1  0  0  3           0  0  0
   -1.9785   -5.0164   13.1001 C   0  0  0  0  0  4           0  0  0
   -1.3923   -6.1998   13.5391 C   0  0  0  0  0  4           0  0  0
   -0.5871    0.0000    1.2340 C   0  0  0  0  0  4           0  0  0
   -0.4234    1.2419    5.7731 C   0  0  0  0  0  4           0  0  0
   -4.0547   -0.9054    6.5118 C   0  0  0  0  0  4           0  0  0
   -2.3414    0.1944    5.0683 C   0  0  0  0  0  4           0  0  0
   -0.5172    0.6552    3.5720 C   0  0  0  0  0  4           0  0  0
   -5.4645   -1.8871    7.9250 C   0  0  0  0  0  4           0  0  0
   -2.2915   -4.8424   11.7492 C   0  0  0  0  0  4           0  0  0
   -1.8010    0.0982    3.7605 C   0  0  0  0  0  4           0  0  0
   -1.1111   -7.2292   12.6487 C   0  0  0  0  0  4           0  0  0
    0.0643    0.6062    2.3086 C   0  0  0  0  0  4           0  0  0
   -1.8493   -0.5501    1.3960 C   0  0  0  0  0  4           0  0  0
   -5.3762   -1.4099    6.6401 C   0  0  0  0  0  4           0  0  0
   -2.0069   -5.8795   10.8513 C   0  0  0  0  0  4           0  0  0
   -2.4483   -0.5077    2.6526 C   0  0  0  0  0  4           0  0  0
   -1.4199   -7.0668   11.3001 C   0  0  0  0  0  4           0  0  0
   -3.2408   -3.3631    9.9330 C   0  0  0  0  0  4           0  0  0
    1.4279   -0.0000    0.0000 C   0  0  0  0  0  4           0  0  0
    3.8469   -2.5839   -3.1637 C   0  0  0  0  0  4           0  0  0
   -3.8438   -1.9826    9.8357 C   0  0  0  0  0  4           0  0  0
    3.7238   -1.1574   -3.7346 C   0  0  0  0  0  4           0  0  0
    3.8993    1.2783   -3.6060 C   0  0  0  0  0  4           0  0  0
    3.4548   -0.0000   -1.5799 C   0  0  0  0  0  4           0  0  0
    4.6872    1.5698   -4.8984 C   0  0  1  0  0  4           0  0  0
    1.9196    0.0000   -1.4417 C   0  0  0  0  0  4           0  0  0
    4.3639    2.9516   -5.4708 C   0  0  0  0  0  4           0  0  0
    6.1969    1.4145   -4.7009 C   0  0  0  0  0  4           0  0  0
  1 13  1  0     0  0
  2 14  1  0     0  0
  3 15  1  0     0  0
  3 31  1  0     0  0
  4 30  2  0     0  0
  5 32  1  0     0  0
  6  7  1  0     0  0
  6 20  1  0     0  0
  6 33  1  0     0  0
  7 17  2  0     0  0
  8 16  1  0     0  0
  8 18  2  0     0  0
  9 16  2  0     0  0
  9 19  1  0     0  0
 10 17  1  0     0  0
 10 18  1  0     0  0
 11 21  1  0     0  0
 11 30  1  0     0  0
 12 34  1  0     0  0
 12 35  1  0     0  0
 12 36  1  0     0  0
 13 14  1  0     0  0
 13 21  2  0     0  0
 14 23  2  0     0  0
 15 24  2  0     0  0
 15 25  1  0     0  0
 17 26  1  0     0  0
 18 22  1  0     0  0
 19 22  2  0     0  0
 19 24  1  0     0  0
 20 26  2  0     0  0
 21 27  1  0     0  0
 22 28  1  0     0  0
 23 29  1  0     0  0
 25 28  2  0     0  0
 27 29  2  0     0  0
 30 33  1  0     0  0
 31 38  1  0     0  0
 32 34  1  0     0  0
 35 37  1  0     0  0
 36 38  1  0     0  0
 37 39  1  0     0  0
 37 40  1  0     0  0
M  END
> <standard_type>
pIC50

> <# Confs.>
25

> <canonical_smiles>
FC1=C(NC(CN2C=CC(NC3=NC=NC4=C3C=CC(OCCCN(CCO)CC(C)C)=C4)=N2)=O)C=CC=C1F

> <standard_relation>
=

> <Publication_ID>
nan

> <predicted_activity_value>
7.853871964321762

> <actual_activity_value>
8.045757490560675

> <Compound>
8

> <standard_units>
nM

> hash
5485682240152081559

$$$$
8_
XXILIB    08252103493D 0   0.00000     0.00000

 40 43  0     1  0            999 V2000
   -4.4780    5.4948   12.9335 F   0  0  0  0  0  1           0  0  0
   -3.4260    7.8397   13.7273 F   0  0  0  0  0  1           0  0  0
    0.0000    0.0000    0.0000 O   0  0  0  0  0  2           0  0  0
   -1.3088    2.9539    9.8227 O   0  0  0  0  0  2           0  0  0
   -0.9344   -0.8755   -4.8671 O   0  0  0  0  0  2           0  0  0
   -2.6923    0.6685    9.2221 N   0  0  0  0  0  3           0  0  0
   -2.8718    0.7461    7.8912 N   0  0  0  0  0  3           0  0  0
   -3.7632    0.6095    5.0671 N   0  0  0  0  0  3           0  0  0
   -3.6577    1.2166    2.7497 N   0  0  0  0  0  3           0  0  0
   -2.0339   -0.6633    6.1046 N   0  0  0  0  0  3           0  0  0
   -3.0251    3.7640   11.1660 N   0  0  0  0  0  3           0  0  0
    1.8506   -1.3568   -3.6661 N   0  0  1  0  0  3           0  0  0
   -3.2592    5.8353   12.4908 C   0  0  0  0  0  4           0  0  0
   -2.7200    7.0487   12.9074 C   0  0  0  0  0  4           0  0  0
   -0.5871    0.0000    1.2340 C   0  0  0  0  0  4           0  0  0
   -4.2364    1.1960    3.9589 C   0  0  0  0  0  4           0  0  0
   -2.1769   -0.2953    7.4052 C   0  0  0  0  0  4           0  0  0
   -2.5791   -0.0424    4.9552 C   0  0  0  0  0  4           0  0  0
   -2.4757    0.5970    2.6402 C   0  0  0  0  0  4           0  0  0
   -1.9169   -0.3811    9.6129 C   0  0  0  0  0  4           0  0  0
   -2.5393    5.0008   11.6313 C   0  0  0  0  0  4           0  0  0
   -1.8633   -0.0584    3.7308 C   0  0  0  0  0  4           0  0  0
   -1.4595    7.4520   12.4829 C   0  0  0  0  0  4           0  0  0
   -1.8319    0.6062    1.4064 C   0  0  0  0  0  4           0  0  0
    0.0304   -0.6517    2.2903 C   0  0  0  0  0  4           0  0  0
   -1.5621   -1.0287    8.4549 C   0  0  0  0  0  4           0  0  0
   -1.2692    5.4078   11.2023 C   0  0  0  0  0  4           0  0  0
   -0.6004   -0.6738    3.5319 C   0  0  0  0  0  4           0  0  0
   -0.7329    6.6275   11.6270 C   0  0  0  0  0  4           0  0  0
   -2.4274    2.8430   10.3200 C   0  0  0  0  0  4           0  0  0
    1.4279   -0.0000    0.0000 C   0  0  0  0  0  4           0  0  0
   -0.0715    0.1936   -4.5001 C   0  0  0  0  0  4           0  0  0
   -3.3158    1.6450   10.0869 C   0  0  0  0  0  4           0  0  0
    1.4017   -0.2591   -4.5266 C   0  0  0  0  0  4           0  0  0
    3.2789   -1.6568   -3.8176 C   0  0  0  0  0  4           0  0  0
    1.4553   -1.2197   -2.2619 C   0  0  0  0  0  4           0  0  0
    3.8393   -2.0870   -5.1875 C   0  0  1  0  0  4           0  0  0
    1.9196    0.0000   -1.4417 C   0  0  0  0  0  4           0  0  0
    5.3454   -2.3529   -5.1360 C   0  0  0  0  0  4           0  0  0
    3.1027   -3.3020   -5.7563 C   0  0  0  0  0  4           0  0  0
  1 13  1  0     0  0
  2 14  1  0     0  0
  3 15  1  0     0  0
  3 31  1  0     0  0
  4 30  2  0     0  0
  5 32  1  0     0  0
  6  7  1  0     0  0
  6 20  1  0     0  0
  6 33  1  0     0  0
  7 17  2  0     0  0
  8 16  1  0     0  0
  8 18  2  0     0  0
  9 16  2  0     0  0
  9 19  1  0     0  0
 10 17  1  0     0  0
 10 18  1  0     0  0
 11 21  1  0     0  0
 11 30  1  0     0  0
 12 34  1  0     0  0
 12 35  1  0     0  0
 12 36  1  0     0  0
 13 14  1  0     0  0
 13 21  2  0     0  0
 14 23  2  0     0  0
 15 24  2  0     0  0
 15 25  1  0     0  0
 17 26  1  0     0  0
 18 22  1  0     0  0
 19 22  2  0     0  0
 19 24  1  0     0  0
 20 26  2  0     0  0
 21 27  1  0     0  0
 22 28  1  0     0  0
 23 29  1  0     0  0
 25 28  2  0     0  0
 27 29  2  0     0  0
 30 33  1  0     0  0
 31 38  1  0     0  0
 32 34  1  0     0  0
 35 37  1  0     0  0
 36 38  1  0     0  0
 37 39  1  0     0  0
 37 40  1  0     0  0
M  END
> <standard_type>
pIC50

> <# Confs.>
25

> <canonical_smiles>
FC1=C(NC(CN2C=CC(NC3=NC=NC4=C3C=CC(OCCCN(CCO)CC(C)C)=C4)=N2)=O)C=CC=C1F

> <standard_relation>
=

> <Publication_ID>
nan

> <predicted_activity_value>
7.853871964321762

> <actual_activity_value>
8.045757490560675

> <Compound>
8

> <standard_units>
nM

> hash
5485682240152081559

$$$$
8_
XXILIB    08252103493D 0   0.00000     0.00000

 40 43  0     1  0            999 V2000
   -2.2305   -4.0578   14.0028 F   0  0  0  0  0  1           0  0  0
   -1.0933   -6.3483   14.8371 F   0  0  0  0  0  1           0  0  0
    0.0000    0.0000    0.0000 O   0  0  0  0  0  2           0  0  0
   -3.1142   -4.1083    8.9637 O   0  0  0  0  0  2           0  0  0
    3.7527    3.7347   -3.2685 O   0  0  0  0  0  2           0  0  0
   -4.2433   -1.6602    8.4842 N   0  0  0  0  0  3           0  0  0
   -3.3681   -1.0634    7.6551 N   0  0  0  0  0  3           0  0  0
   -1.6325    0.7528    6.0809 N   0  0  0  0  0  3           0  0  0
    0.1673    1.2290    4.5696 N   0  0  0  0  0  3           0  0  0
   -3.6175   -0.3492    5.3512 N   0  0  0  0  0  3           0  0  0
   -2.8796   -3.6709   11.2352 N   0  0  0  0  0  3           0  0  0
    1.8506    1.3568   -3.6661 N   0  0  1  0  0  3           0  0  0
   -1.9785   -5.0164   13.1001 C   0  0  0  0  0  4           0  0  0
   -1.3923   -6.1998   13.5391 C   0  0  0  0  0  4           0  0  0
   -0.5871    0.0000    1.2340 C   0  0  0  0  0  4           0  0  0
   -0.4234    1.2419    5.7731 C   0  0  0  0  0  4           0  0  0
   -4.0547   -0.9054    6.5118 C   0  0  0  0  0  4           0  0  0
   -2.3414    0.1944    5.0683 C   0  0  0  0  0  4           0  0  0
   -0.5172    0.6552    3.5720 C   0  0  0  0  0  4           0  0  0
   -5.4645   -1.8871    7.9250 C   0  0  0  0  0  4           0  0  0
   -2.2915   -4.8424   11.7492 C   0  0  0  0  0  4           0  0  0
   -1.8010    0.0982    3.7605 C   0  0  0  0  0  4           0  0  0
   -1.1111   -7.2292   12.6487 C   0  0  0  0  0  4           0  0  0
    0.0643    0.6062    2.3086 C   0  0  0  0  0  4           0  0  0
   -1.8493   -0.5501    1.3960 C   0  0  0  0  0  4           0  0  0
   -5.3762   -1.4099    6.6401 C   0  0  0  0  0  4           0  0  0
   -2.0069   -5.8795   10.8513 C   0  0  0  0  0  4           0  0  0
   -2.4483   -0.5077    2.6526 C   0  0  0  0  0  4           0  0  0
   -1.4199   -7.0668   11.3001 C   0  0  0  0  0  4           0  0  0
   -3.2408   -3.3631    9.9330 C   0  0  0  0  0  4           0  0  0
    1.4279   -0.0000   -0.0000 C   0  0  0  0  0  4           0  0  0
    4.1643    2.3902   -3.0554 C   0  0  0  0  0  4           0  0  0
   -3.8438   -1.9826    9.8357 C   0  0  0  0  0  4           0  0  0
    3.2990    1.4165   -3.8795 C   0  0  0  0  0  4           0  0  0
    1.1833    0.3785   -4.5323 C   0  0  0  0  0  4           0  0  0
    1.4553    1.2197   -2.2619 C   0  0  0  0  0  4           0  0  0
    1.2659    0.5172   -6.0653 C   0  0  1  0  0  4           0  0  0
    1.9196    0.0000   -1.4417 C   0  0  0  0  0  4           0  0  0
    0.5067   -0.5987   -6.7863 C   0  0  0  0  0  4           0  0  0
    0.7838    1.8875   -6.5472 C   0  0  0  0  0  4           0  0  0
  1 13  1  0     0  0
  2 14  1  0     0  0
  3 15  1  0     0  0
  3 31  1  0     0  0
  4 30  2  0     0  0
  5 32  1  0     0  0
  6  7  1  0     0  0
  6 20  1  0     0  0
  6 33  1  0     0  0
  7 17  2  0     0  0
  8 16  1  0     0  0
  8 18  2  0     0  0
  9 16  2  0     0  0
  9 19  1  0     0  0
 10 17  1  0     0  0
 10 18  1  0     0  0
 11 21  1  0     0  0
 11 30  1  0     0  0
 12 34  1  0     0  0
 12 35  1  0     0  0
 12 36  1  0     0  0
 13 14  1  0     0  0
 13 21  2  0     0  0
 14 23  2  0     0  0
 15 24  2  0     0  0
 15 25  1  0     0  0
 17 26  1  0     0  0
 18 22  1  0     0  0
 19 22  2  0     0  0
 19 24  1  0     0  0
 20 26  2  0     0  0
 21 27  1  0     0  0
 22 28  1  0     0  0
 23 29  1  0     0  0
 25 28  2  0     0  0
 27 29  2  0     0  0
 30 33  1  0     0  0
 31 38  1  0     0  0
 32 34  1  0     0  0
 35 37  1  0     0  0
 36 38  1  0     0  0
 37 39  1  0     0  0
 37 40  1  0     0  0
M  END
> <standard_type>
pIC50

> <# Confs.>
25

> <canonical_smiles>
FC1=C(NC(CN2C=CC(NC3=NC=NC4=C3C=CC(OCCCN(CCO)CC(C)C)=C4)=N2)=O)C=CC=C1F

> <standard_relation>
=

> <Publication_ID>
nan

> <predicted_activity_value>
7.853871964321762

> <actual_activity_value>
8.045757490560675

> <Compound>
8

> <standard_units>
nM

> hash
5485682240152081559

$$$$
8_
XXILIB    08252103493D 0   0.00000     0.00000

 40 43  0     1  0            999 V2000
   -4.4780    5.4948   12.9335 F   0  0  0  0  0  1           0  0  0
   -3.4260    7.8397   13.7273 F   0  0  0  0  0  1           0  0  0
    0.0000    0.0000    0.0000 O   0  0  0  0  0  2           0  0  0
   -1.3088    2.9539    9.8227 O   0  0  0  0  0  2           0  0  0
    2.8898   -1.9403   -5.1179 O   0  0  0  0  0  2           0  0  0
   -2.6923    0.6685    9.2221 N   0  0  0  0  0  3           0  0  0
   -2.8718    0.7461    7.8912 N   0  0  0  0  0  3           0  0  0
   -3.7632    0.6095    5.0671 N   0  0  0  0  0  3           0  0  0
   -3.6577    1.2166    2.7497 N   0  0  0  0  0  3           0  0  0
   -2.0339   -0.6633    6.1046 N   0  0  0  0  0  3           0  0  0
   -3.0251    3.7640   11.1660 N   0  0  0  0  0  3           0  0  0
    1.8506    0.6580   -3.8534 N   0  0  1  0  0  3           0  0  0
   -3.2592    5.8353   12.4908 C   0  0  0  0  0  4           0  0  0
   -2.7200    7.0487   12.9074 C   0  0  0  0  0  4           0  0  0
   -0.5871    0.0000    1.2340 C   0  0  0  0  0  4           0  0  0
   -4.2364    1.1960    3.9589 C   0  0  0  0  0  4           0  0  0
   -2.1769   -0.2953    7.4052 C   0  0  0  0  0  4           0  0  0
   -2.5791   -0.0424    4.9552 C   0  0  0  0  0  4           0  0  0
   -2.4757    0.5970    2.6402 C   0  0  0  0  0  4           0  0  0
   -1.9169   -0.3811    9.6129 C   0  0  0  0  0  4           0  0  0
   -2.5393    5.0008   11.6313 C   0  0  0  0  0  4           0  0  0
   -1.8633   -0.0584    3.7308 C   0  0  0  0  0  4           0  0  0
   -1.4595    7.4520   12.4829 C   0  0  0  0  0  4           0  0  0
   -1.8319    0.6062    1.4064 C   0  0  0  0  0  4           0  0  0
    0.0304   -0.6517    2.2903 C   0  0  0  0  0  4           0  0  0
   -1.5621   -1.0287    8.4549 C   0  0  0  0  0  4           0  0  0
   -1.2692    5.4078   11.2023 C   0  0  0  0  0  4           0  0  0
   -0.6004   -0.6738    3.5319 C   0  0  0  0  0  4           0  0  0
   -0.7329    6.6275   11.6270 C   0  0  0  0  0  4           0  0  0
   -2.4274    2.8430   10.3200 C   0  0  0  0  0  4           0  0  0
    1.4279   -0.0000    0.0000 C   0  0  0  0  0  4           0  0  0
    1.5121   -1.5879   -5.1321 C   0  0  0  0  0  4           0  0  0
   -3.3158    1.6450   10.0869 C   0  0  0  0  0  4           0  0  0
    1.3374   -0.0603   -5.0228 C   0  0  0  0  0  4           0  0  0
    1.5992    2.1023   -3.9119 C   0  0  0  0  0  4           0  0  0
    1.4553    0.0746   -2.5687 C   0  0  0  0  0  4           0  0  0
    2.1738    2.9427   -5.0694 C   0  0  1  0  0  4           0  0  0
    1.9196    0.7208   -1.2485 C   0  0  0  0  0  4           0  0  0
    1.8001    4.4216   -4.9482 C   0  0  0  0  0  4           0  0  0
    3.6906    2.7850   -5.1989 C   0  0  0  0  0  4           0  0  0
  1 13  1  0     0  0
  2 14  1  0     0  0
  3 15  1  0     0  0
  3 31  1  0     0  0
  4 30  2  0     0  0
  5 32  1  0     0  0
  6  7  1  0     0  0
  6 20  1  0     0  0
  6 33  1  0     0  0
  7 17  2  0     0  0
  8 16  1  0     0  0
  8 18  2  0     0  0
  9 16  2  0     0  0
  9 19  1  0     0  0
 10 17  1  0     0  0
 10 18  1  0     0  0
 11 21  1  0     0  0
 11 30  1  0     0  0
 12 34  1  0     0  0
 12 35  1  0     0  0
 12 36  1  0     0  0
 13 14  1  0     0  0
 13 21  2  0     0  0
 14 23  2  0     0  0
 15 24  2  0     0  0
 15 25  1  0     0  0
 17 26  1  0     0  0
 18 22  1  0     0  0
 19 22  2  0     0  0
 19 24  1  0     0  0
 20 26  2  0     0  0
 21 27  1  0     0  0
 22 28  1  0     0  0
 23 29  1  0     0  0
 25 28  2  0     0  0
 27 29  2  0     0  0
 30 33  1  0     0  0
 31 38  1  0     0  0
 32 34  1  0     0  0
 35 37  1  0     0  0
 36 38  1  0     0  0
 37 39  1  0     0  0
 37 40  1  0     0  0
M  END
> <standard_type>
pIC50

> <# Confs.>
25

> <canonical_smiles>
FC1=C(NC(CN2C=CC(NC3=NC=NC4=C3C=CC(OCCCN(CCO)CC(C)C)=C4)=N2)=O)C=CC=C1F

> <standard_relation>
=

> <Publication_ID>
nan

> <predicted_activity_value>
7.853871964321762

> <actual_activity_value>
8.045757490560675

> <Compound>
8

> <standard_units>
nM

> hash
5485682240152081559

$$$$
8_
XXILIB    08252103493D 0   0.00000     0.00000

 40 43  0     1  0            999 V2000
   -6.2975    4.2853   12.9873 F   0  0  0  0  0  1           0  0  0
   -8.7339    4.1085   14.1135 F   0  0  0  0  0  1           0  0  0
    0.0000    0.0000    0.0000 O   0  0  0  0  0  2           0  0  0
   -5.2025    0.1477   10.1842 O   0  0  0  0  0  2           0  0  0
    3.8869   -1.8736   -4.9356 O   0  0  0  0  0  2           0  0  0
   -2.6923    0.6685    9.2221 N   0  0  0  0  0  3           0  0  0
   -2.8718    0.7461    7.8912 N   0  0  0  0  0  3           0  0  0
   -3.7632    0.6095    5.0671 N   0  0  0  0  0  3           0  0  0
   -3.6577    1.2166    2.7497 N   0  0  0  0  0  3           0  0  0
   -2.0339   -0.6633    6.1046 N   0  0  0  0  0  3           0  0  0
   -5.2897    2.1621   11.3420 N   0  0  0  0  0  3           0  0  0
    4.2453   -0.4424   -1.4276 N   0  0  1  0  0  3           0  0  0
   -7.0329    3.1877   12.7596 C   0  0  0  0  0  4           0  0  0
   -8.2934    3.1039   13.3434 C   0  0  0  0  0  4           0  0  0
   -0.5871    0.0000    1.2340 C   0  0  0  0  0  4           0  0  0
   -4.2364    1.1960    3.9589 C   0  0  0  0  0  4           0  0  0
   -2.1769   -0.2953    7.4052 C   0  0  0  0  0  4           0  0  0
   -2.5791   -0.0424    4.9552 C   0  0  0  0  0  4           0  0  0
   -2.4757    0.5970    2.6402 C   0  0  0  0  0  4           0  0  0
   -1.9169   -0.3811    9.6129 C   0  0  0  0  0  4           0  0  0
   -6.5554    2.1468   11.9584 C   0  0  0  0  0  4           0  0  0
   -1.8633   -0.0584    3.7308 C   0  0  0  0  0  4           0  0  0
   -9.1009    1.9913   13.1397 C   0  0  0  0  0  4           0  0  0
   -1.8319    0.6062    1.4064 C   0  0  0  0  0  4           0  0  0
    0.0304   -0.6517    2.2903 C   0  0  0  0  0  4           0  0  0
   -1.5621   -1.0287    8.4549 C   0  0  0  0  0  4           0  0  0
   -7.3688    1.0246   11.7541 C   0  0  0  0  0  4           0  0  0
   -0.6004   -0.6738    3.5319 C   0  0  0  0  0  4           0  0  0
   -8.6353    0.9485   12.3421 C   0  0  0  0  0  4           0  0  0
   -4.6919    1.2109   10.5302 C   0  0  0  0  0  4           0  0  0
    1.4279    0.0000   -0.0000 C   0  0  0  0  0  4           0  0  0
    4.2946   -0.8876   -3.9954 C   0  0  0  0  0  4           0  0  0
   -3.3158    1.6450   10.0869 C   0  0  0  0  0  4           0  0  0
    3.9193   -1.3112   -2.5616 C   0  0  0  0  0  4           0  0  0
    5.6844   -0.1899   -1.2941 C   0  0  0  0  0  4           0  0  0
    3.4548    0.7899   -1.3682 C   0  0  0  0  0  4           0  0  0
    6.6602   -1.3632   -1.0768 C   0  0  1  0  0  4           0  0  0
    1.9196    0.7208   -1.2485 C   0  0  0  0  0  4           0  0  0
    8.1115   -0.8918   -0.9625 C   0  0  0  0  0  4           0  0  0
    6.2787   -2.2133    0.1373 C   0  0  0  0  0  4           0  0  0
  1 13  1  0     0  0
  2 14  1  0     0  0
  3 15  1  0     0  0
  3 31  1  0     0  0
  4 30  2  0     0  0
  5 32  1  0     0  0
  6  7  1  0     0  0
  6 20  1  0     0  0
  6 33  1  0     0  0
  7 17  2  0     0  0
  8 16  1  0     0  0
  8 18  2  0     0  0
  9 16  2  0     0  0
  9 19  1  0     0  0
 10 17  1  0     0  0
 10 18  1  0     0  0
 11 21  1  0     0  0
 11 30  1  0     0  0
 12 34  1  0     0  0
 12 35  1  0     0  0
 12 36  1  0     0  0
 13 14  1  0     0  0
 13 21  2  0     0  0
 14 23  2  0     0  0
 15 24  2  0     0  0
 15 25  1  0     0  0
 17 26  1  0     0  0
 18 22  1  0     0  0
 19 22  2  0     0  0
 19 24  1  0     0  0
 20 26  2  0     0  0
 21 27  1  0     0  0
 22 28  1  0     0  0
 23 29  1  0     0  0
 25 28  2  0     0  0
 27 29  2  0     0  0
 30 33  1  0     0  0
 31 38  1  0     0  0
 32 34  1  0     0  0
 35 37  1  0     0  0
 36 38  1  0     0  0
 37 39  1  0     0  0
 37 40  1  0     0  0
M  END
> <standard_type>
pIC50

> <# Confs.>
25

> <canonical_smiles>
FC1=C(NC(CN2C=CC(NC3=NC=NC4=C3C=CC(OCCCN(CCO)CC(C)C)=C4)=N2)=O)C=CC=C1F

> <standard_relation>
=

> <Publication_ID>
nan

> <predicted_activity_value>
7.853871964321762

> <actual_activity_value>
8.045757490560675

> <Compound>
8

> <standard_units>
nM

> hash
5485682240152081559

$$$$
8_
XXILIB    08252103493D 0   0.00000     0.00000

 40 43  0     1  0            999 V2000
   -7.1419    5.5152   11.6660 F   0  0  0  0  0  1           0  0  0
   -7.3048    8.1914   11.8817 F   0  0  0  0  0  1           0  0  0
    0.0000    0.0000    0.0000 O   0  0  0  0  0  2           0  0  0
   -3.0101    4.0774    9.0133 O   0  0  0  0  0  2           0  0  0
    5.1880   -2.8592   -2.7789 O   0  0  0  0  0  2           0  0  0
   -3.1793    1.3445    8.9904 N   0  0  0  0  0  3           0  0  0
   -3.3051    1.0447    7.6850 N   0  0  0  0  0  3           0  0  0
   -3.8906   -0.0827    5.0065 N   0  0  0  0  0  3           0  0  0
   -3.9503   -0.0071    2.6104 N   0  0  0  0  0  3           0  0  0
   -1.8295   -0.1813    6.2019 N   0  0  0  0  0  3           0  0  0
   -4.9744    4.2925   10.2386 N   0  0  0  0  0  3           0  0  0
    4.0749    0.0000   -2.9075 N   0  0  1  0  0  3           0  0  0
   -6.1870    6.2652   11.0978 C   0  0  0  0  0  4           0  0  0
   -6.2762    7.6491   11.2153 C   0  0  0  0  0  4           0  0  0
   -0.5871   -0.0000    1.2340 C   0  0  0  0  0  4           0  0  0
   -4.5194   -0.0265    3.8243 C   0  0  0  0  0  4           0  0  0
   -2.1906    0.3522    7.3987 C   0  0  0  0  0  4           0  0  0
   -2.5358   -0.1367    4.9758 C   0  0  0  0  0  4           0  0  0
   -2.6120   -0.0336    2.5753 C   0  0  0  0  0  4           0  0  0
   -2.0351    0.8695    9.5566 C   0  0  0  0  0  4           0  0  0
   -5.1243    5.6830   10.4014 C   0  0  0  0  0  4           0  0  0
   -1.8273   -0.0904    3.7480 C   0  0  0  0  0  4           0  0  0
   -5.3135    8.4762   10.6492 C   0  0  0  0  0  4           0  0  0
   -1.9786    0.0000    1.3367 C   0  0  0  0  0  4           0  0  0
    0.2022   -0.0587    2.3721 C   0  0  0  0  0  4           0  0  0
   -1.3664    0.2201    8.5480 C   0  0  0  0  0  4           0  0  0
   -4.1544    6.5167    9.8295 C   0  0  0  0  0  4           0  0  0
   -0.4141   -0.0959    3.6205 C   0  0  0  0  0  4           0  0  0
   -4.2495    7.9064    9.9538 C   0  0  0  0  0  4           0  0  0
   -3.9822    3.5831    9.5802 C   0  0  0  0  0  4           0  0  0
    1.4279   -0.0000    0.0000 C   0  0  0  0  0  4           0  0  0
    3.8469   -2.5839   -3.1637 C   0  0  0  0  0  4           0  0  0
   -4.2206    2.0944    9.6564 C   0  0  0  0  0  4           0  0  0
    3.7238   -1.1574   -3.7346 C   0  0  0  0  0  4           0  0  0
    3.8993    1.2783   -3.6060 C   0  0  0  0  0  4           0  0  0
    3.4548   -0.0000   -1.5799 C   0  0  0  0  0  4           0  0  0
    4.6872    1.5698   -4.8984 C   0  0  1  0  0  4           0  0  0
    1.9196    0.0000   -1.4417 C   0  0  0  0  0  4           0  0  0
    4.3639    2.9516   -5.4708 C   0  0  0  0  0  4           0  0  0
    6.1969    1.4145   -4.7009 C   0  0  0  0  0  4           0  0  0
  1 13  1  0     0  0
  2 14  1  0     0  0
  3 15  1  0     0  0
  3 31  1  0     0  0
  4 30  2  0     0  0
  5 32  1  0     0  0
  6  7  1  0     0  0
  6 20  1  0     0  0
  6 33  1  0     0  0
  7 17  2  0     0  0
  8 16  1  0     0  0
  8 18  2  0     0  0
  9 16  2  0     0  0
  9 19  1  0     0  0
 10 17  1  0     0  0
 10 18  1  0     0  0
 11 21  1  0     0  0
 11 30  1  0     0  0
 12 34  1  0     0  0
 12 35  1  0     0  0
 12 36  1  0     0  0
 13 14  1  0     0  0
 13 21  2  0     0  0
 14 23  2  0     0  0
 15 24  2  0     0  0
 15 25  1  0     0  0
 17 26  1  0     0  0
 18 22  1  0     0  0
 19 22  2  0     0  0
 19 24  1  0     0  0
 20 26  2  0     0  0
 21 27  1  0     0  0
 22 28  1  0     0  0
 23 29  1  0     0  0
 25 28  2  0     0  0
 27 29  2  0     0  0
 30 33  1  0     0  0
 31 38  1  0     0  0
 32 34  1  0     0  0
 35 37  1  0     0  0
 36 38  1  0     0  0
 37 39  1  0     0  0
 37 40  1  0     0  0
M  END
> <standard_type>
pIC50

> <# Confs.>
25

> <canonical_smiles>
FC1=C(NC(CN2C=CC(NC3=NC=NC4=C3C=CC(OCCCN(CCO)CC(C)C)=C4)=N2)=O)C=CC=C1F

> <standard_relation>
=

> <Publication_ID>
nan

> <predicted_activity_value>
7.853871964321762

> <actual_activity_value>
8.045757490560675

> <Compound>
8

> <standard_units>
nM

> hash
5485682240152081559

$$$$
8_
XXILIB    08252103493D 0   0.00000     0.00000

 40 43  0     1  0            999 V2000
   -4.4780    5.4948   12.9335 F   0  0  0  0  0  1           0  0  0
   -3.4260    7.8397   13.7273 F   0  0  0  0  0  1           0  0  0
    0.0000    0.0000    0.0000 O   0  0  0  0  0  2           0  0  0
   -1.3088    2.9539    9.8227 O   0  0  0  0  0  2           0  0  0
   -0.9627    4.0242   -3.1916 O   0  0  0  0  0  2           0  0  0
   -2.6923    0.6685    9.2221 N   0  0  0  0  0  3           0  0  0
   -2.8718    0.7461    7.8912 N   0  0  0  0  0  3           0  0  0
   -3.7632    0.6095    5.0671 N   0  0  0  0  0  3           0  0  0
   -3.6577    1.2166    2.7497 N   0  0  0  0  0  3           0  0  0
   -2.0339   -0.6633    6.1046 N   0  0  0  0  0  3           0  0  0
   -3.0251    3.7640   11.1660 N   0  0  0  0  0  3           0  0  0
    1.8506    3.0081   -2.4965 N   0  0  1  0  0  3           0  0  0
   -3.2592    5.8353   12.4908 C   0  0  0  0  0  4           0  0  0
   -2.7200    7.0487   12.9074 C   0  0  0  0  0  4           0  0  0
   -0.5871    0.0000    1.2340 C   0  0  0  0  0  4           0  0  0
   -4.2364    1.1960    3.9589 C   0  0  0  0  0  4           0  0  0
   -2.1769   -0.2953    7.4052 C   0  0  0  0  0  4           0  0  0
   -2.5791   -0.0424    4.9552 C   0  0  0  0  0  4           0  0  0
   -2.4757    0.5970    2.6402 C   0  0  0  0  0  4           0  0  0
   -1.9169   -0.3811    9.6129 C   0  0  0  0  0  4           0  0  0
   -2.5393    5.0008   11.6313 C   0  0  0  0  0  4           0  0  0
   -1.8633   -0.0584    3.7308 C   0  0  0  0  0  4           0  0  0
   -1.4595    7.4520   12.4829 C   0  0  0  0  0  4           0  0  0
   -1.8319    0.6062    1.4064 C   0  0  0  0  0  4           0  0  0
    0.0304   -0.6517    2.2903 C   0  0  0  0  0  4           0  0  0
   -1.5621   -1.0287    8.4549 C   0  0  0  0  0  4           0  0  0
   -1.2692    5.4078   11.2023 C   0  0  0  0  0  4           0  0  0
   -0.6004   -0.6738    3.5319 C   0  0  0  0  0  4           0  0  0
   -0.7329    6.6275   11.6270 C   0  0  0  0  0  4           0  0  0
   -2.4274    2.8430   10.3200 C   0  0  0  0  0  4           0  0  0
    1.4279   -0.0000   -0.0000 C   0  0  0  0  0  4           0  0  0
   -0.1585    4.6408   -2.1939 C   0  0  0  0  0  4           0  0  0
   -3.3158    1.6450   10.0869 C   0  0  0  0  0  4           0  0  0
    1.3374    4.3800   -2.4591 C   0  0  0  0  0  4           0  0  0
    3.2925    2.9424   -2.7600 C   0  0  0  0  0  4           0  0  0
    1.4553    2.1872   -1.3490 C   0  0  0  0  0  4           0  0  0
    3.8691    3.5253   -4.0653 C   0  0  1  0  0  4           0  0  0
    1.9196    0.7208   -1.2485 C   0  0  0  0  0  4           0  0  0
    5.3878    3.3580   -4.1493 C   0  0  0  0  0  4           0  0  0
    3.1981    2.9337   -5.3070 C   0  0  0  0  0  4           0  0  0
  1 13  1  0     0  0
  2 14  1  0     0  0
  3 15  1  0     0  0
  3 31  1  0     0  0
  4 30  2  0     0  0
  5 32  1  0     0  0
  6  7  1  0     0  0
  6 20  1  0     0  0
  6 33  1  0     0  0
  7 17  2  0     0  0
  8 16  1  0     0  0
  8 18  2  0     0  0
  9 16  2  0     0  0
  9 19  1  0     0  0
 10 17  1  0     0  0
 10 18  1  0     0  0
 11 21  1  0     0  0
 11 30  1  0     0  0
 12 34  1  0     0  0
 12 35  1  0     0  0
 12 36  1  0     0  0
 13 14  1  0     0  0
 13 21  2  0     0  0
 14 23  2  0     0  0
 15 24  2  0     0  0
 15 25  1  0     0  0
 17 26  1  0     0  0
 18 22  1  0     0  0
 19 22  2  0     0  0
 19 24  1  0     0  0
 20 26  2  0     0  0
 21 27  1  0     0  0
 22 28  1  0     0  0
 23 29  1  0     0  0
 25 28  2  0     0  0
 27 29  2  0     0  0
 30 33  1  0     0  0
 31 38  1  0     0  0
 32 34  1  0     0  0
 35 37  1  0     0  0
 36 38  1  0     0  0
 37 39  1  0     0  0
 37 40  1  0     0  0
M  END
> <standard_type>
pIC50

> <# Confs.>
25

> <canonical_smiles>
FC1=C(NC(CN2C=CC(NC3=NC=NC4=C3C=CC(OCCCN(CCO)CC(C)C)=C4)=N2)=O)C=CC=C1F

> <standard_relation>
=

> <Publication_ID>
nan

> <predicted_activity_value>
7.853871964321762

> <actual_activity_value>
8.045757490560675

> <Compound>
8

> <standard_units>
nM

> hash
5485682240152081559

$$$$
8_
XXILIB    08252103493D 0   0.00000     0.00000

 40 43  0     1  0            999 V2000
   -3.9366    0.3792   14.8325 F   0  0  0  0  0  1           0  0  0
   -2.8857   -1.1158   16.8063 F   0  0  0  0  0  1           0  0  0
    0.0000    0.0000    0.0000 O   0  0  0  0  0  2           0  0  0
   -3.7064   -2.0142   10.3165 O   0  0  0  0  0  2           0  0  0
   -0.9344   -3.1918   -3.7773 O   0  0  0  0  0  2           0  0  0
   -4.8346   -0.2221    8.5805 N   0  0  0  0  0  3           0  0  0
   -3.8340    0.0694    7.7298 N   0  0  0  0  0  3           0  0  0
   -1.6325    0.7528    6.0809 N   0  0  0  0  0  3           0  0  0
    0.1673    1.2290    4.5696 N   0  0  0  0  0  3           0  0  0
   -3.6175   -0.3492    5.3512 N   0  0  0  0  0  3           0  0  0
   -3.9920   -0.5920   12.1336 N   0  0  0  0  0  3           0  0  0
    1.8506   -3.0081   -2.4965 N   0  0  1  0  0  3           0  0  0
   -3.4446   -0.8306   14.5302 C   0  0  0  0  0  4           0  0  0
   -2.9046   -1.5997   15.5566 C   0  0  0  0  0  4           0  0  0
   -0.5871   -0.0000    1.2340 C   0  0  0  0  0  4           0  0  0
   -0.4234    1.2419    5.7731 C   0  0  0  0  0  4           0  0  0
   -4.2648   -0.3946    6.5455 C   0  0  0  0  0  4           0  0  0
   -2.3414    0.1944    5.0683 C   0  0  0  0  0  4           0  0  0
   -0.5172    0.6552    3.5720 C   0  0  0  0  0  4           0  0  0
   -5.8920   -0.8481    7.9929 C   0  0  0  0  0  4           0  0  0
   -3.4671   -1.3173   13.2202 C   0  0  0  0  0  4           0  0  0
   -1.8010    0.0982    3.7605 C   0  0  0  0  0  4           0  0  0
   -2.3829   -2.8626   15.3025 C   0  0  0  0  0  4           0  0  0
    0.0643    0.6062    2.3086 C   0  0  0  0  0  4           0  0  0
   -1.8493   -0.5501    1.3960 C   0  0  0  0  0  4           0  0  0
   -5.5539   -0.9784    6.6681 C   0  0  0  0  0  4           0  0  0
   -2.9400   -2.5898   12.9637 C   0  0  0  0  0  4           0  0  0
   -2.4483   -0.5077    2.6526 C   0  0  0  0  0  4           0  0  0
   -2.4011   -3.3579   14.0007 C   0  0  0  0  0  4           0  0  0
   -4.0792   -0.9457   10.7963 C   0  0  0  0  0  4           0  0  0
    1.4279   -0.0000    0.0000 C   0  0  0  0  0  4           0  0  0
   -0.0715   -2.0824   -3.9940 C   0  0  0  0  0  4           0  0  0
   -4.7199    0.1460    9.9739 C   0  0  0  0  0  4           0  0  0
    1.4017   -2.4877   -3.7906 C   0  0  0  0  0  4           0  0  0
    3.2789   -3.3436   -2.4777 C   0  0  0  0  0  4           0  0  0
    1.4553   -2.1872   -1.3490 C   0  0  0  0  0  4           0  0  0
    3.8393   -4.4012   -3.4490 C   0  0  1  0  0  4           0  0  0
    1.9196   -0.7208   -1.2485 C   0  0  0  0  0  4           0  0  0
    5.3454   -4.6057   -3.2715 C   0  0  0  0  0  4           0  0  0
    3.1027   -5.7378   -3.3341 C   0  0  0  0  0  4           0  0  0
  1 13  1  0     0  0
  2 14  1  0     0  0
  3 15  1  0     0  0
  3 31  1  0     0  0
  4 30  2  0     0  0
  5 32  1  0     0  0
  6  7  1  0     0  0
  6 20  1  0     0  0
  6 33  1  0     0  0
  7 17  2  0     0  0
  8 16  1  0     0  0
  8 18  2  0     0  0
  9 16  2  0     0  0
  9 19  1  0     0  0
 10 17  1  0     0  0
 10 18  1  0     0  0
 11 21  1  0     0  0
 11 30  1  0     0  0
 12 34  1  0     0  0
 12 35  1  0     0  0
 12 36  1  0     0  0
 13 14  1  0     0  0
 13 21  2  0     0  0
 14 23  2  0     0  0
 15 24  2  0     0  0
 15 25  1  0     0  0
 17 26  1  0     0  0
 18 22  1  0     0  0
 19 22  2  0     0  0
 19 24  1  0     0  0
 20 26  2  0     0  0
 21 27  1  0     0  0
 22 28  1  0     0  0
 23 29  1  0     0  0
 25 28  2  0     0  0
 27 29  2  0     0  0
 30 33  1  0     0  0
 31 38  1  0     0  0
 32 34  1  0     0  0
 35 37  1  0     0  0
 36 38  1  0     0  0
 37 39  1  0     0  0
 37 40  1  0     0  0
M  END
> <standard_type>
pIC50

> <# Confs.>
25

> <canonical_smiles>
FC1=C(NC(CN2C=CC(NC3=NC=NC4=C3C=CC(OCCCN(CCO)CC(C)C)=C4)=N2)=O)C=CC=C1F

> <standard_relation>
=

> <Publication_ID>
nan

> <predicted_activity_value>
7.853871964321762

> <actual_activity_value>
8.045757490560675

> <Compound>
8

> <standard_units>
nM

> hash
5485682240152081559

$$$$
7_
XXILIB    08252103493D 0   0.00000     0.00000

 43 47  0     1  0            999 V2000
   -7.0859    0.4569    2.5689 S   0  0  0  0  0  2           0  0  0
    3.8231    1.4557   -4.3729 P   0  0  2  0  0  5           0  0  0
  -15.2028    0.7735   -0.6453 F   0  0  0  0  0  1           0  0  0
    3.8478    2.4030   -5.5369 O   0  0  0  0  0  2           0  0  0
    3.4904    2.1264   -2.9389 O   0  0  0  0  0  2           0  0  0
    5.2118    0.6676   -4.1115 O   0  0  0  0  0  2           0  0  0
    2.7382    0.2622   -4.4851 O   0  0  0  0  0  2           0  0  0
   -0.0206   -0.0086    2.3507 O   0  0  0  0  0  2           0  0  0
  -11.3494    2.4043    1.3981 O   0  0  0  0  0  2           0  0  0
   -6.9561    1.3095    0.1462 N   0  0  0  0  0  3           0  0  0
   -4.8122    0.0907   -1.5006 N   0  0  0  0  0  3           0  0  0
   -2.6438    0.0749   -2.5208 N   0  0  0  0  0  3           0  0  0
   -5.0674    0.0335    0.8730 N   0  0  0  0  0  3           0  0  0
  -11.3372    0.2147    2.1755 N   0  0  0  0  0  3           0  0  0
    3.9314    3.6673   -1.1204 N   0  0  2  0  0  3           0  0  0
   -6.2835    0.6118    1.0418 C   0  0  0  0  0  4           0  0  0
   -8.3940    1.3972    1.9888 C   0  0  0  0  0  4           0  0  0
  -14.4423   -0.0001    0.1422 C   0  0  0  0  0  4           0  0  0
   -0.7396    0.0000    1.1890 C   0  0  0  0  0  4           0  0  0
   -3.9835    0.1031   -2.5532 C   0  0  0  0  0  4           0  0  0
   -4.2385    0.0299   -0.2728 C   0  0  0  0  0  4           0  0  0
   -2.0729    0.0407   -1.3096 C   0  0  0  0  0  4           0  0  0
   -8.1475    1.7553    0.6808 C   0  0  0  0  0  4           0  0  0
  -12.5050   -0.2664    1.5535 C   0  0  0  0  0  4           0  0  0
   -2.8269    0.0244   -0.1214 C   0  0  0  0  0  4           0  0  0
    0.0000    0.0000    0.0000 C   0  0  0  0  0  4           0  0  0
  -13.2977    0.5380    0.7277 C   0  0  0  0  0  4           0  0  0
  -14.8113   -1.3236    0.3612 C   0  0  0  0  0  4           0  0  0
   -2.1386    0.0113    1.1207 C   0  0  0  0  0  4           0  0  0
   -0.6840    0.0269   -1.2262 C   0  0  0  0  0  4           0  0  0
  -12.8732   -1.5993    1.7790 C   0  0  0  0  0  4           0  0  0
  -14.0224   -2.1249    1.1829 C   0  0  0  0  0  4           0  0  0
  -10.8376    1.4994    2.0565 C   0  0  0  0  0  4           0  0  0
    4.3452    3.1428   -2.4301 C   0  0  2  0  0  4           0  0  0
   -0.7940   -0.0084    3.5481 C   0  0  0  0  0  4           0  0  0
    4.6294    4.9521   -1.0032 C   0  0  0  0  0  4           0  0  0
    4.2509    2.7804    0.0000 C   0  0  0  0  0  4           0  0  0
   -9.5657    1.7117    2.8451 C   0  0  0  0  0  4           0  0  0
    1.5026    0.0000    0.0000 C   0  0  0  0  0  4           0  0  0
    4.2629    4.3793   -3.3210 C   0  0  0  0  0  4           0  0  0
    4.4783    5.5631   -2.3871 C   0  0  0  0  0  4           0  0  0
    3.6384    1.3728    0.0000 C   0  0  0  0  0  4           0  0  0
    2.1122    1.4009    0.0000 C   0  0  0  0  0  4           0  0  0
  1 16  1  0     0  0
  1 17  1  0     0  0
  2  4  2  0     0  0
  2  5  1  0     0  0
  2  6  1  0     0  0
  2  7  1  0     0  0
  3 18  1  0     0  0
  5 34  1  0     0  0
  8 19  1  0     0  0
  8 35  1  0     0  0
  9 33  2  0     0  0
 10 16  2  0     0  0
 10 23  1  0     0  0
 11 20  1  0     0  0
 11 21  2  0     0  0
 12 20  2  0     0  0
 12 22  1  0     0  0
 13 16  1  0     0  0
 13 21  1  0     0  0
 14 24  1  0     0  0
 14 33  1  0     0  0
 15 34  1  0     0  0
 15 36  1  0     0  0
 15 37  1  0     0  0
 17 23  2  0     0  0
 17 38  1  0     0  0
 18 27  1  0     0  0
 18 28  2  0     0  0
 19 26  2  0     0  0
 19 29  1  0     0  0
 21 25  1  0     0  0
 22 25  1  0     0  0
 22 30  2  0     0  0
 24 27  2  0     0  0
 24 31  1  0     0  0
 25 29  2  0     0  0
 26 30  1  0     0  0
 26 39  1  0     0  0
 28 32  1  0     0  0
 31 32  2  0     0  0
 33 38  1  0     0  0
 34 40  1  0     0  0
 36 41  1  0     0  0
 37 42  1  0     0  0
 39 43  1  0     0  0
 40 41  1  0     0  0
 42 43  1  0     0  0
M  END
> <standard_type>
pIC50

> <# Confs.>
25

> <canonical_smiles>
FC1=CC=CC(NC(CC2=CN=C(NC3=NC=NC4=CC(CCCCN5[C@@H](OP(O)(O)=O)CCC5)=C(OC)C=C34)S2)=O)=C1

> <standard_relation>
=

> <Publication_ID>
nan

> <predicted_activity_value>
8.09151498112135

> <actual_activity_value>
8.045757490560675

> <Compound>
7

> <standard_units>
nM

> hash
12078469371866150626

$$$$
7_
XXILIB    08252103493D 0   0.00000     0.00000

 43 47  0     1  0            999 V2000
   -7.0859    0.4569    2.5689 S   0  0  0  0  0  2           0  0  0
    3.8231    1.4557   -4.3729 P   0  0  2  0  0  5           0  0  0
  -14.2086   -3.0592    2.1221 F   0  0  0  0  0  1           0  0  0
    3.8478    2.4030   -5.5369 O   0  0  0  0  0  2           0  0  0
    3.4904    2.1264   -2.9389 O   0  0  0  0  0  2           0  0  0
    5.2118    0.6676   -4.1115 O   0  0  0  0  0  2           0  0  0
    2.7382    0.2622   -4.4851 O   0  0  0  0  0  2           0  0  0
   -0.0206   -0.0086    2.3507 O   0  0  0  0  0  2           0  0  0
  -11.4924    0.7113    1.8240 O   0  0  0  0  0  2           0  0  0
   -6.9561    1.3095    0.1462 N   0  0  0  0  0  3           0  0  0
   -4.8122    0.0907   -1.5006 N   0  0  0  0  0  3           0  0  0
   -2.6438    0.0749   -2.5208 N   0  0  0  0  0  3           0  0  0
   -5.0674    0.0335    0.8730 N   0  0  0  0  0  3           0  0  0
  -10.4687   -0.3998    3.5894 N   0  0  0  0  0  3           0  0  0
    3.9314    3.6673   -1.1204 N   0  0  2  0  0  3           0  0  0
   -6.2835    0.6118    1.0418 C   0  0  0  0  0  4           0  0  0
   -8.3940    1.3972    1.9888 C   0  0  0  0  0  4           0  0  0
  -13.1659   -2.8759    2.9445 C   0  0  0  0  0  4           0  0  0
   -0.7396    0.0000    1.1890 C   0  0  0  0  0  4           0  0  0
   -3.9835    0.1031   -2.5532 C   0  0  0  0  0  4           0  0  0
   -4.2385    0.0299   -0.2728 C   0  0  0  0  0  4           0  0  0
   -2.0729    0.0407   -1.3096 C   0  0  0  0  0  4           0  0  0
   -8.1475    1.7553    0.6808 C   0  0  0  0  0  4           0  0  0
  -11.2979   -1.5346    3.6707 C   0  0  0  0  0  4           0  0  0
   -2.8269    0.0244   -0.1214 C   0  0  0  0  0  4           0  0  0
    0.0000    0.0000    0.0000 C   0  0  0  0  0  4           0  0  0
  -12.3840   -1.7300    2.8106 C   0  0  0  0  0  4           0  0  0
  -12.8861   -3.8315    3.9162 C   0  0  0  0  0  4           0  0  0
   -2.1386    0.0113    1.1207 C   0  0  0  0  0  4           0  0  0
   -0.6840    0.0269   -1.2262 C   0  0  0  0  0  4           0  0  0
  -11.0130   -2.4928    4.6523 C   0  0  0  0  0  4           0  0  0
  -11.8049   -3.6378    4.7724 C   0  0  0  0  0  4           0  0  0
  -10.6131    0.6341    2.6814 C   0  0  0  0  0  4           0  0  0
    4.3452    3.1428   -2.4301 C   0  0  2  0  0  4           0  0  0
   -0.7940   -0.0084    3.5481 C   0  0  0  0  0  4           0  0  0
    4.6294    4.9521   -1.0032 C   0  0  0  0  0  4           0  0  0
    4.2509    2.7804    0.0000 C   0  0  0  0  0  4           0  0  0
   -9.5657    1.7117    2.8451 C   0  0  0  0  0  4           0  0  0
    1.5026    0.0000    0.0000 C   0  0  0  0  0  4           0  0  0
    4.2629    4.3793   -3.3210 C   0  0  0  0  0  4           0  0  0
    4.4783    5.5631   -2.3871 C   0  0  0  0  0  4           0  0  0
    3.6384    1.3728    0.0000 C   0  0  0  0  0  4           0  0  0
    2.1122    1.4009    0.0000 C   0  0  0  0  0  4           0  0  0
  1 16  1  0     0  0
  1 17  1  0     0  0
  2  4  2  0     0  0
  2  5  1  0     0  0
  2  6  1  0     0  0
  2  7  1  0     0  0
  3 18  1  0     0  0
  5 34  1  0     0  0
  8 19  1  0     0  0
  8 35  1  0     0  0
  9 33  2  0     0  0
 10 16  2  0     0  0
 10 23  1  0     0  0
 11 20  1  0     0  0
 11 21  2  0     0  0
 12 20  2  0     0  0
 12 22  1  0     0  0
 13 16  1  0     0  0
 13 21  1  0     0  0
 14 24  1  0     0  0
 14 33  1  0     0  0
 15 34  1  0     0  0
 15 36  1  0     0  0
 15 37  1  0     0  0
 17 23  2  0     0  0
 17 38  1  0     0  0
 18 27  1  0     0  0
 18 28  2  0     0  0
 19 26  2  0     0  0
 19 29  1  0     0  0
 21 25  1  0     0  0
 22 25  1  0     0  0
 22 30  2  0     0  0
 24 27  2  0     0  0
 24 31  1  0     0  0
 25 29  2  0     0  0
 26 30  1  0     0  0
 26 39  1  0     0  0
 28 32  1  0     0  0
 31 32  2  0     0  0
 33 38  1  0     0  0
 34 40  1  0     0  0
 36 41  1  0     0  0
 37 42  1  0     0  0
 39 43  1  0     0  0
 40 41  1  0     0  0
 42 43  1  0     0  0
M  END
> <standard_type>
pIC50

> <# Confs.>
25

> <canonical_smiles>
FC1=CC=CC(NC(CC2=CN=C(NC3=NC=NC4=CC(CCCCN5[C@@H](OP(O)(O)=O)CCC5)=C(OC)C=C34)S2)=O)=C1

> <standard_relation>
=

> <Publication_ID>
nan

> <predicted_activity_value>
8.09151498112135

> <actual_activity_value>
8.045757490560675

> <Compound>
7

> <standard_units>
nM

> hash
12078469371866150626

$$$$
7_
XXILIB    08252103493D 0   0.00000     0.00000

 43 47  0     1  0            999 V2000
   -7.0859    0.4569    2.5689 S   0  0  0  0  0  2           0  0  0
    3.8231    1.4557   -4.3729 P   0  0  2  0  0  5           0  0  0
   -8.4522    7.4295    6.1476 F   0  0  0  0  0  1           0  0  0
    3.8478    2.4030   -5.5369 O   0  0  0  0  0  2           0  0  0
    3.4904    2.1264   -2.9389 O   0  0  0  0  0  2           0  0  0
    5.2118    0.6676   -4.1115 O   0  0  0  0  0  2           0  0  0
    2.7382    0.2622   -4.4851 O   0  0  0  0  0  2           0  0  0
   -0.0206   -0.0086    2.3507 O   0  0  0  0  0  2           0  0  0
   -8.7747    3.0167    4.6962 O   0  0  0  0  0  2           0  0  0
   -6.9561    1.3095    0.1462 N   0  0  0  0  0  3           0  0  0
   -4.8122    0.0907   -1.5006 N   0  0  0  0  0  3           0  0  0
   -2.6438    0.0749   -2.5208 N   0  0  0  0  0  3           0  0  0
   -5.0674    0.0335    0.8730 N   0  0  0  0  0  3           0  0  0
   -9.7590    4.1173    2.9021 N   0  0  0  0  0  3           0  0  0
    3.9314    3.6673   -1.1204 N   0  0  2  0  0  3           0  0  0
   -6.2835    0.6118    1.0418 C   0  0  0  0  0  4           0  0  0
   -8.3940    1.3972    1.9888 C   0  0  0  0  0  4           0  0  0
   -9.0061    7.1151    4.9680 C   0  0  0  0  0  4           0  0  0
   -0.7396    0.0000    1.1890 C   0  0  0  0  0  4           0  0  0
   -3.9835    0.1031   -2.5532 C   0  0  0  0  0  4           0  0  0
   -4.2385    0.0299   -0.2728 C   0  0  0  0  0  4           0  0  0
   -2.0729    0.0407   -1.3096 C   0  0  0  0  0  4           0  0  0
   -8.1475    1.7553    0.6808 C   0  0  0  0  0  4           0  0  0
   -9.6571    5.4472    3.3524 C   0  0  0  0  0  4           0  0  0
   -2.8269    0.0244   -0.1214 C   0  0  0  0  0  4           0  0  0
    0.0000    0.0000    0.0000 C   0  0  0  0  0  4           0  0  0
   -9.0754    5.7779    4.5811 C   0  0  0  0  0  4           0  0  0
   -9.5025    8.1288    4.1546 C   0  0  0  0  0  4           0  0  0
   -2.1386    0.0113    1.1207 C   0  0  0  0  0  4           0  0  0
   -0.6840    0.0269   -1.2262 C   0  0  0  0  0  4           0  0  0
  -10.1605    6.4641    2.5303 C   0  0  0  0  0  4           0  0  0
  -10.0814    7.8002    2.9312 C   0  0  0  0  0  4           0  0  0
   -9.3136    3.0025    3.5900 C   0  0  0  0  0  4           0  0  0
    4.3452    3.1428   -2.4301 C   0  0  2  0  0  4           0  0  0
   -0.7940   -0.0084    3.5481 C   0  0  0  0  0  4           0  0  0
    4.6294    4.9521   -1.0032 C   0  0  0  0  0  4           0  0  0
    4.2509    2.7804    0.0000 C   0  0  0  0  0  4           0  0  0
   -9.5657    1.7117    2.8451 C   0  0  0  0  0  4           0  0  0
    1.5026    0.0000    0.0000 C   0  0  0  0  0  4           0  0  0
    4.2629    4.3793   -3.3210 C   0  0  0  0  0  4           0  0  0
    4.4783    5.5631   -2.3871 C   0  0  0  0  0  4           0  0  0
    3.6384    1.3728    0.0000 C   0  0  0  0  0  4           0  0  0
    2.1122    1.4009    0.0000 C   0  0  0  0  0  4           0  0  0
  1 16  1  0     0  0
  1 17  1  0     0  0
  2  4  2  0     0  0
  2  5  1  0     0  0
  2  6  1  0     0  0
  2  7  1  0     0  0
  3 18  1  0     0  0
  5 34  1  0     0  0
  8 19  1  0     0  0
  8 35  1  0     0  0
  9 33  2  0     0  0
 10 16  2  0     0  0
 10 23  1  0     0  0
 11 20  1  0     0  0
 11 21  2  0     0  0
 12 20  2  0     0  0
 12 22  1  0     0  0
 13 16  1  0     0  0
 13 21  1  0     0  0
 14 24  1  0     0  0
 14 33  1  0     0  0
 15 34  1  0     0  0
 15 36  1  0     0  0
 15 37  1  0     0  0
 17 23  2  0     0  0
 17 38  1  0     0  0
 18 27  1  0     0  0
 18 28  2  0     0  0
 19 26  2  0     0  0
 19 29  1  0     0  0
 21 25  1  0     0  0
 22 25  1  0     0  0
 22 30  2  0     0  0
 24 27  2  0     0  0
 24 31  1  0     0  0
 25 29  2  0     0  0
 26 30  1  0     0  0
 26 39  1  0     0  0
 28 32  1  0     0  0
 31 32  2  0     0  0
 33 38  1  0     0  0
 34 40  1  0     0  0
 36 41  1  0     0  0
 37 42  1  0     0  0
 39 43  1  0     0  0
 40 41  1  0     0  0
 42 43  1  0     0  0
M  END
> <standard_type>
pIC50

> <# Confs.>
25

> <canonical_smiles>
FC1=CC=CC(NC(CC2=CN=C(NC3=NC=NC4=CC(CCCCN5[C@@H](OP(O)(O)=O)CCC5)=C(OC)C=C34)S2)=O)=C1

> <standard_relation>
=

> <Publication_ID>
nan

> <predicted_activity_value>
8.09151498112135

> <actual_activity_value>
8.045757490560675

> <Compound>
7

> <standard_units>
nM

> hash
12078469371866150626

$$$$
7_
XXILIB    08252103493D 0   0.00000     0.00000

 43 47  0     1  0            999 V2000
   -7.0859    0.4569    2.5689 S   0  0  0  0  0  2           0  0  0
    3.8231    1.4557   -4.3729 P   0  0  2  0  0  5           0  0  0
   -8.4449    7.4312    6.1421 F   0  0  0  0  0  1           0  0  0
    3.8478    2.4030   -5.5369 O   0  0  0  0  0  2           0  0  0
    3.4904    2.1264   -2.9389 O   0  0  0  0  0  2           0  0  0
    5.2118    0.6676   -4.1115 O   0  0  0  0  0  2           0  0  0
    2.7382    0.2622   -4.4851 O   0  0  0  0  0  2           0  0  0
   -0.0206   -0.0086    2.3507 O   0  0  0  0  0  2           0  0  0
   -9.6365    4.0936    3.1216 O   0  0  0  0  0  2           0  0  0
   -6.9561    1.3095    0.1462 N   0  0  0  0  0  3           0  0  0
   -4.8122    0.0907   -1.5006 N   0  0  0  0  0  3           0  0  0
   -2.6438    0.0749   -2.5208 N   0  0  0  0  0  3           0  0  0
   -5.0674    0.0335    0.8730 N   0  0  0  0  0  3           0  0  0
   -8.6884    2.8079    4.8088 N   0  0  0  0  0  3           0  0  0
    3.9314    3.6673   -1.1204 N   0  0  2  0  0  3           0  0  0
   -6.2835    0.6118    1.0418 C   0  0  0  0  0  4           0  0  0
   -8.3940    1.3972    1.9888 C   0  0  0  0  0  4           0  0  0
   -8.2053    6.1363    6.3931 C   0  0  0  0  0  4           0  0  0
   -0.7396    0.0000    1.1890 C   0  0  0  0  0  4           0  0  0
   -3.9835    0.1031   -2.5532 C   0  0  0  0  0  4           0  0  0
   -4.2385    0.0299   -0.2728 C   0  0  0  0  0  4           0  0  0
   -2.0729    0.0407   -1.3096 C   0  0  0  0  0  4           0  0  0
   -8.1475    1.7553    0.6808 C   0  0  0  0  0  4           0  0  0
   -8.3315    3.8260    5.7133 C   0  0  0  0  0  4           0  0  0
   -2.8269    0.0244   -0.1214 C   0  0  0  0  0  4           0  0  0
    0.0000    0.0000    0.0000 C   0  0  0  0  0  4           0  0  0
   -8.5845    5.1776    5.4553 C   0  0  0  0  0  4           0  0  0
   -7.5814    5.7753    7.5831 C   0  0  0  0  0  4           0  0  0
   -2.1386    0.0113    1.1207 C   0  0  0  0  0  4           0  0  0
   -0.6840    0.0269   -1.2262 C   0  0  0  0  0  4           0  0  0
   -7.7016    3.4571    6.9092 C   0  0  0  0  0  4           0  0  0
   -7.3296    4.4299    7.8406 C   0  0  0  0  0  4           0  0  0
   -9.3136    3.0025    3.5900 C   0  0  0  0  0  4           0  0  0
    4.3452    3.1428   -2.4301 C   0  0  2  0  0  4           0  0  0
   -0.7940   -0.0084    3.5481 C   0  0  0  0  0  4           0  0  0
    4.6294    4.9521   -1.0032 C   0  0  0  0  0  4           0  0  0
    4.2509    2.7804    0.0000 C   0  0  0  0  0  4           0  0  0
   -9.5657    1.7117    2.8451 C   0  0  0  0  0  4           0  0  0
    1.5026    0.0000    0.0000 C   0  0  0  0  0  4           0  0  0
    4.2629    4.3793   -3.3210 C   0  0  0  0  0  4           0  0  0
    4.4783    5.5631   -2.3871 C   0  0  0  0  0  4           0  0  0
    3.6384    1.3728    0.0000 C   0  0  0  0  0  4           0  0  0
    2.1122    1.4009    0.0000 C   0  0  0  0  0  4           0  0  0
  1 16  1  0     0  0
  1 17  1  0     0  0
  2  4  2  0     0  0
  2  5  1  0     0  0
  2  6  1  0     0  0
  2  7  1  0     0  0
  3 18  1  0     0  0
  5 34  1  0     0  0
  8 19  1  0     0  0
  8 35  1  0     0  0
  9 33  2  0     0  0
 10 16  2  0     0  0
 10 23  1  0     0  0
 11 20  1  0     0  0
 11 21  2  0     0  0
 12 20  2  0     0  0
 12 22  1  0     0  0
 13 16  1  0     0  0
 13 21  1  0     0  0
 14 24  1  0     0  0
 14 33  1  0     0  0
 15 34  1  0     0  0
 15 36  1  0     0  0
 15 37  1  0     0  0
 17 23  2  0     0  0
 17 38  1  0     0  0
 18 27  1  0     0  0
 18 28  2  0     0  0
 19 26  2  0     0  0
 19 29  1  0     0  0
 21 25  1  0     0  0
 22 25  1  0     0  0
 22 30  2  0     0  0
 24 27  2  0     0  0
 24 31  1  0     0  0
 25 29  2  0     0  0
 26 30  1  0     0  0
 26 39  1  0     0  0
 28 32  1  0     0  0
 31 32  2  0     0  0
 33 38  1  0     0  0
 34 40  1  0     0  0
 36 41  1  0     0  0
 37 42  1  0     0  0
 39 43  1  0     0  0
 40 41  1  0     0  0
 42 43  1  0     0  0
M  END
> <standard_type>
pIC50

> <# Confs.>
25

> <canonical_smiles>
FC1=CC=CC(NC(CC2=CN=C(NC3=NC=NC4=CC(CCCCN5[C@@H](OP(O)(O)=O)CCC5)=C(OC)C=C34)S2)=O)=C1

> <standard_relation>
=

> <Publication_ID>
nan

> <predicted_activity_value>
8.09151498112135

> <actual_activity_value>
8.045757490560675

> <Compound>
7

> <standard_units>
nM

> hash
12078469371866150626

$$$$
7_
XXILIB    08252103493D 0   0.00000     0.00000

 43 47  0     1  0            999 V2000
   -7.0859    0.4569    2.5689 S   0  0  0  0  0  2           0  0  0
    3.8231    1.4557   -4.3729 P   0  0  2  0  0  5           0  0  0
  -11.1268    8.1907    2.1937 F   0  0  0  0  0  1           0  0  0
    3.8478    2.4030   -5.5369 O   0  0  0  0  0  2           0  0  0
    3.4904    2.1264   -2.9389 O   0  0  0  0  0  2           0  0  0
    5.2118    0.6676   -4.1115 O   0  0  0  0  0  2           0  0  0
    2.7382    0.2622   -4.4851 O   0  0  0  0  0  2           0  0  0
   -0.0206   -0.0086    2.3507 O   0  0  0  0  0  2           0  0  0
  -10.7120    3.5660    1.8437 O   0  0  0  0  0  2           0  0  0
   -6.9561    1.3095    0.1462 N   0  0  0  0  0  3           0  0  0
   -4.8122    0.0907   -1.5006 N   0  0  0  0  0  3           0  0  0
   -2.6438    0.0749   -2.5208 N   0  0  0  0  0  3           0  0  0
   -5.0674    0.0335    0.8730 N   0  0  0  0  0  3           0  0  0
   -9.2537    3.9819    3.6042 N   0  0  0  0  0  3           0  0  0
    3.9314    3.6673   -1.1204 N   0  0  2  0  0  3           0  0  0
   -6.2835    0.6118    1.0418 C   0  0  0  0  0  4           0  0  0
   -8.3940    1.3972    1.9888 C   0  0  0  0  0  4           0  0  0
  -10.3182    7.4931    3.0040 C   0  0  0  0  0  4           0  0  0
   -0.7396    0.0000    1.1890 C   0  0  0  0  0  4           0  0  0
   -3.9835    0.1031   -2.5532 C   0  0  0  0  0  4           0  0  0
   -4.2385    0.0299   -0.2728 C   0  0  0  0  0  4           0  0  0
   -2.0729    0.0407   -1.3096 C   0  0  0  0  0  4           0  0  0
   -8.1475    1.7553    0.6808 C   0  0  0  0  0  4           0  0  0
   -9.3864    5.3802    3.6993 C   0  0  0  0  0  4           0  0  0
   -2.8269    0.0244   -0.1214 C   0  0  0  0  0  4           0  0  0
    0.0000    0.0000    0.0000 C   0  0  0  0  0  4           0  0  0
  -10.2330    6.1097    2.8575 C   0  0  0  0  0  4           0  0  0
   -9.5788    8.1635    3.9734 C   0  0  0  0  0  4           0  0  0
   -2.1386    0.0113    1.1207 C   0  0  0  0  0  4           0  0  0
   -0.6840    0.0269   -1.2262 C   0  0  0  0  0  4           0  0  0
   -8.6380    6.0506    4.6758 C   0  0  0  0  0  4           0  0  0
   -8.7361    7.4377    4.8118 C   0  0  0  0  0  4           0  0  0
   -9.9187    3.1741    2.6989 C   0  0  0  0  0  4           0  0  0
    4.3452    3.1428   -2.4301 C   0  0  2  0  0  4           0  0  0
   -0.7940   -0.0084    3.5481 C   0  0  0  0  0  4           0  0  0
    4.6294    4.9521   -1.0032 C   0  0  0  0  0  4           0  0  0
    4.2509    2.7804    0.0000 C   0  0  0  0  0  4           0  0  0
   -9.5657    1.7117    2.8451 C   0  0  0  0  0  4           0  0  0
    1.5026    0.0000    0.0000 C   0  0  0  0  0  4           0  0  0
    4.2629    4.3793   -3.3210 C   0  0  0  0  0  4           0  0  0
    4.4783    5.5631   -2.3871 C   0  0  0  0  0  4           0  0  0
    3.6384    1.3728    0.0000 C   0  0  0  0  0  4           0  0  0
    2.1122    1.4009    0.0000 C   0  0  0  0  0  4           0  0  0
  1 16  1  0     0  0
  1 17  1  0     0  0
  2  4  2  0     0  0
  2  5  1  0     0  0
  2  6  1  0     0  0
  2  7  1  0     0  0
  3 18  1  0     0  0
  5 34  1  0     0  0
  8 19  1  0     0  0
  8 35  1  0     0  0
  9 33  2  0     0  0
 10 16  2  0     0  0
 10 23  1  0     0  0
 11 20  1  0     0  0
 11 21  2  0     0  0
 12 20  2  0     0  0
 12 22  1  0     0  0
 13 16  1  0     0  0
 13 21  1  0     0  0
 14 24  1  0     0  0
 14 33  1  0     0  0
 15 34  1  0     0  0
 15 36  1  0     0  0
 15 37  1  0     0  0
 17 23  2  0     0  0
 17 38  1  0     0  0
 18 27  1  0     0  0
 18 28  2  0     0  0
 19 26  2  0     0  0
 19 29  1  0     0  0
 21 25  1  0     0  0
 22 25  1  0     0  0
 22 30  2  0     0  0
 24 27  2  0     0  0
 24 31  1  0     0  0
 25 29  2  0     0  0
 26 30  1  0     0  0
 26 39  1  0     0  0
 28 32  1  0     0  0
 31 32  2  0     0  0
 33 38  1  0     0  0
 34 40  1  0     0  0
 36 41  1  0     0  0
 37 42  1  0     0  0
 39 43  1  0     0  0
 40 41  1  0     0  0
 42 43  1  0     0  0
M  END
> <standard_type>
pIC50

> <# Confs.>
25

> <canonical_smiles>
FC1=CC=CC(NC(CC2=CN=C(NC3=NC=NC4=CC(CCCCN5[C@@H](OP(O)(O)=O)CCC5)=C(OC)C=C34)S2)=O)=C1

> <standard_relation>
=

> <Publication_ID>
nan

> <predicted_activity_value>
8.09151498112135

> <actual_activity_value>
8.045757490560675

> <Compound>
7

> <standard_units>
nM

> hash
12078469371866150626

$$$$
7_
XXILIB    08252103493D 0   0.00000     0.00000

 43 47  0     1  0            999 V2000
   -7.0859    0.4569    2.5689 S   0  0  0  0  0  2           0  0  0
    4.5241   -7.3603    0.1011 P   0  0  2  0  0  5           0  0  0
  -15.2028    0.7735   -0.6453 F   0  0  0  0  0  1           0  0  0
    4.5386   -8.2216   -1.1281 O   0  0  0  0  0  2           0  0  0
    3.9346   -5.8679   -0.1039 O   0  0  0  0  0  2           0  0  0
    5.9764   -7.1076    0.7682 O   0  0  0  0  0  2           0  0  0
    3.6496   -7.9390    1.3317 O   0  0  0  0  0  2           0  0  0
   -0.0206   -0.0086    2.3507 O   0  0  0  0  0  2           0  0  0
  -11.3494    2.4043    1.3981 O   0  0  0  0  0  2           0  0  0
   -6.9561    1.3095    0.1462 N   0  0  0  0  0  3           0  0  0
   -4.8122    0.0907   -1.5006 N   0  0  0  0  0  3           0  0  0
   -2.6438    0.0749   -2.5208 N   0  0  0  0  0  3           0  0  0
   -5.0674    0.0335    0.8730 N   0  0  0  0  0  3           0  0  0
  -11.3372    0.2147    2.1755 N   0  0  0  0  0  3           0  0  0
    3.9314   -3.6673   -1.1204 N   0  0  2  0  0  3           0  0  0
   -6.2835    0.6118    1.0418 C   0  0  0  0  0  4           0  0  0
   -8.3940    1.3972    1.9888 C   0  0  0  0  0  4           0  0  0
  -14.4423   -0.0001    0.1422 C   0  0  0  0  0  4           0  0  0
   -0.7396    0.0000    1.1890 C   0  0  0  0  0  4           0  0  0
   -3.9835    0.1031   -2.5532 C   0  0  0  0  0  4           0  0  0
   -4.2385    0.0299   -0.2728 C   0  0  0  0  0  4           0  0  0
   -2.0729    0.0407   -1.3096 C   0  0  0  0  0  4           0  0  0
   -8.1475    1.7553    0.6808 C   0  0  0  0  0  4           0  0  0
  -12.5050   -0.2664    1.5535 C   0  0  0  0  0  4           0  0  0
   -2.8269    0.0244   -0.1214 C   0  0  0  0  0  4           0  0  0
    0.0000    0.0000    0.0000 C   0  0  0  0  0  4           0  0  0
  -13.2977    0.5380    0.7277 C   0  0  0  0  0  4           0  0  0
  -14.8113   -1.3236    0.3612 C   0  0  0  0  0  4           0  0  0
   -2.1386    0.0113    1.1207 C   0  0  0  0  0  4           0  0  0
   -0.6840    0.0269   -1.2262 C   0  0  0  0  0  4           0  0  0
  -12.8732   -1.5993    1.7790 C   0  0  0  0  0  4           0  0  0
  -14.0224   -2.1249    1.1829 C   0  0  0  0  0  4           0  0  0
  -10.8376    1.4994    2.0565 C   0  0  0  0  0  4           0  0  0
    4.5646   -4.9911   -1.0296 C   0  0  2  0  0  4           0  0  0
   -0.7940   -0.0084    3.5481 C   0  0  0  0  0  4           0  0  0
    4.4116   -3.1180   -2.3929 C   0  0  0  0  0  4           0  0  0
    4.2509   -2.7804    0.0000 C   0  0  0  0  0  4           0  0  0
   -9.5657    1.7117    2.8451 C   0  0  0  0  0  4           0  0  0
    1.5026    0.0000    0.0000 C   0  0  0  0  0  4           0  0  0
    4.3999   -5.5329   -2.4469 C   0  0  0  0  0  4           0  0  0
    4.3286   -4.3026   -3.3422 C   0  0  0  0  0  4           0  0  0
    3.6384   -1.3728    0.0000 C   0  0  0  0  0  4           0  0  0
    2.1122   -1.4009    0.0000 C   0  0  0  0  0  4           0  0  0
  1 16  1  0     0  0
  1 17  1  0     0  0
  2  4  2  0     0  0
  2  5  1  0     0  0
  2  6  1  0     0  0
  2  7  1  0     0  0
  3 18  1  0     0  0
  5 34  1  0     0  0
  8 19  1  0     0  0
  8 35  1  0     0  0
  9 33  2  0     0  0
 10 16  2  0     0  0
 10 23  1  0     0  0
 11 20  1  0     0  0
 11 21  2  0     0  0
 12 20  2  0     0  0
 12 22  1  0     0  0
 13 16  1  0     0  0
 13 21  1  0     0  0
 14 24  1  0     0  0
 14 33  1  0     0  0
 15 34  1  0     0  0
 15 36  1  0     0  0
 15 37  1  0     0  0
 17 23  2  0     0  0
 17 38  1  0     0  0
 18 27  1  0     0  0
 18 28  2  0     0  0
 19 26  2  0     0  0
 19 29  1  0     0  0
 21 25  1  0     0  0
 22 25  1  0     0  0
 22 30  2  0     0  0
 24 27  2  0     0  0
 24 31  1  0     0  0
 25 29  2  0     0  0
 26 30  1  0     0  0
 26 39  1  0     0  0
 28 32  1  0     0  0
 31 32  2  0     0  0
 33 38  1  0     0  0
 34 40  1  0     0  0
 36 41  1  0     0  0
 37 42  1  0     0  0
 39 43  1  0     0  0
 40 41  1  0     0  0
 42 43  1  0     0  0
M  END
> <standard_type>
pIC50

> <# Confs.>
25

> <canonical_smiles>
FC1=CC=CC(NC(CC2=CN=C(NC3=NC=NC4=CC(CCCCN5[C@@H](OP(O)(O)=O)CCC5)=C(OC)C=C34)S2)=O)=C1

> <standard_relation>
=

> <Publication_ID>
nan

> <predicted_activity_value>
8.09151498112135

> <actual_activity_value>
8.045757490560675

> <Compound>
7

> <standard_units>
nM

> hash
12078469371866150626

$$$$
7_
XXILIB    08252103493D 0   0.00000     0.00000

 43 47  0     1  0            999 V2000
   -7.0859    0.4569    2.5689 S   0  0  0  0  0  2           0  0  0
    4.5241   -7.3603    0.1011 P   0  0  2  0  0  5           0  0  0
  -14.2086   -3.0592    2.1221 F   0  0  0  0  0  1           0  0  0
    4.5386   -8.2216   -1.1281 O   0  0  0  0  0  2           0  0  0
    3.9346   -5.8679   -0.1039 O   0  0  0  0  0  2           0  0  0
    5.9764   -7.1076    0.7682 O   0  0  0  0  0  2           0  0  0
    3.6496   -7.9390    1.3317 O   0  0  0  0  0  2           0  0  0
   -0.0206   -0.0086    2.3507 O   0  0  0  0  0  2           0  0  0
  -11.4924    0.7113    1.8240 O   0  0  0  0  0  2           0  0  0
   -6.9561    1.3095    0.1462 N   0  0  0  0  0  3           0  0  0
   -4.8122    0.0907   -1.5006 N   0  0  0  0  0  3           0  0  0
   -2.6438    0.0749   -2.5208 N   0  0  0  0  0  3           0  0  0
   -5.0674    0.0335    0.8730 N   0  0  0  0  0  3           0  0  0
  -10.4687   -0.3998    3.5894 N   0  0  0  0  0  3           0  0  0
    3.9314   -3.6673   -1.1204 N   0  0  2  0  0  3           0  0  0
   -6.2835    0.6118    1.0418 C   0  0  0  0  0  4           0  0  0
   -8.3940    1.3972    1.9888 C   0  0  0  0  0  4           0  0  0
  -13.1659   -2.8759    2.9445 C   0  0  0  0  0  4           0  0  0
   -0.7396    0.0000    1.1890 C   0  0  0  0  0  4           0  0  0
   -3.9835    0.1031   -2.5532 C   0  0  0  0  0  4           0  0  0
   -4.2385    0.0299   -0.2728 C   0  0  0  0  0  4           0  0  0
   -2.0729    0.0407   -1.3096 C   0  0  0  0  0  4           0  0  0
   -8.1475    1.7553    0.6808 C   0  0  0  0  0  4           0  0  0
  -11.2979   -1.5346    3.6707 C   0  0  0  0  0  4           0  0  0
   -2.8269    0.0244   -0.1214 C   0  0  0  0  0  4           0  0  0
    0.0000    0.0000    0.0000 C   0  0  0  0  0  4           0  0  0
  -12.3840   -1.7300    2.8106 C   0  0  0  0  0  4           0  0  0
  -12.8861   -3.8315    3.9162 C   0  0  0  0  0  4           0  0  0
   -2.1386    0.0113    1.1207 C   0  0  0  0  0  4           0  0  0
   -0.6840    0.0269   -1.2262 C   0  0  0  0  0  4           0  0  0
  -11.0130   -2.4928    4.6523 C   0  0  0  0  0  4           0  0  0
  -11.8049   -3.6378    4.7724 C   0  0  0  0  0  4           0  0  0
  -10.6131    0.6341    2.6814 C   0  0  0  0  0  4           0  0  0
    4.5646   -4.9911   -1.0296 C   0  0  2  0  0  4           0  0  0
   -0.7940   -0.0084    3.5481 C   0  0  0  0  0  4           0  0  0
    4.4116   -3.1180   -2.3929 C   0  0  0  0  0  4           0  0  0
    4.2509   -2.7804    0.0000 C   0  0  0  0  0  4           0  0  0
   -9.5657    1.7117    2.8451 C   0  0  0  0  0  4           0  0  0
    1.5026    0.0000    0.0000 C   0  0  0  0  0  4           0  0  0
    4.3999   -5.5329   -2.4469 C   0  0  0  0  0  4           0  0  0
    4.3286   -4.3026   -3.3422 C   0  0  0  0  0  4           0  0  0
    3.6384   -1.3728    0.0000 C   0  0  0  0  0  4           0  0  0
    2.1122   -1.4009    0.0000 C   0  0  0  0  0  4           0  0  0
  1 16  1  0     0  0
  1 17  1  0     0  0
  2  4  2  0     0  0
  2  5  1  0     0  0
  2  6  1  0     0  0
  2  7  1  0     0  0
  3 18  1  0     0  0
  5 34  1  0     0  0
  8 19  1  0     0  0
  8 35  1  0     0  0
  9 33  2  0     0  0
 10 16  2  0     0  0
 10 23  1  0     0  0
 11 20  1  0     0  0
 11 21  2  0     0  0
 12 20  2  0     0  0
 12 22  1  0     0  0
 13 16  1  0     0  0
 13 21  1  0     0  0
 14 24  1  0     0  0
 14 33  1  0     0  0
 15 34  1  0     0  0
 15 36  1  0     0  0
 15 37  1  0     0  0
 17 23  2  0     0  0
 17 38  1  0     0  0
 18 27  1  0     0  0
 18 28  2  0     0  0
 19 26  2  0     0  0
 19 29  1  0     0  0
 21 25  1  0     0  0
 22 25  1  0     0  0
 22 30  2  0     0  0
 24 27  2  0     0  0
 24 31  1  0     0  0
 25 29  2  0     0  0
 26 30  1  0     0  0
 26 39  1  0     0  0
 28 32  1  0     0  0
 31 32  2  0     0  0
 33 38  1  0     0  0
 34 40  1  0     0  0
 36 41  1  0     0  0
 37 42  1  0     0  0
 39 43  1  0     0  0
 40 41  1  0     0  0
 42 43  1  0     0  0
M  END
> <standard_type>
pIC50

> <# Confs.>
25

> <canonical_smiles>
FC1=CC=CC(NC(CC2=CN=C(NC3=NC=NC4=CC(CCCCN5[C@@H](OP(O)(O)=O)CCC5)=C(OC)C=C34)S2)=O)=C1

> <standard_relation>
=

> <Publication_ID>
nan

> <predicted_activity_value>
8.09151498112135

> <actual_activity_value>
8.045757490560675

> <Compound>
7

> <standard_units>
nM

> hash
12078469371866150626

$$$$
7_
XXILIB    08252103493D 0   0.00000     0.00000

 43 47  0     1  0            999 V2000
   -7.0859    0.4569    2.5689 S   0  0  0  0  0  2           0  0  0
    4.5241    7.3603   -0.1011 P   0  0  2  0  0  5           0  0  0
  -15.2028    0.7735   -0.6453 F   0  0  0  0  0  1           0  0  0
    4.5386    8.2216    1.1281 O   0  0  0  0  0  2           0  0  0
    3.9346    5.8679    0.1039 O   0  0  0  0  0  2           0  0  0
    5.9764    7.1076   -0.7682 O   0  0  0  0  0  2           0  0  0
    3.6496    7.9390   -1.3317 O   0  0  0  0  0  2           0  0  0
   -0.0206   -0.0086    2.3507 O   0  0  0  0  0  2           0  0  0
  -11.3494    2.4043    1.3981 O   0  0  0  0  0  2           0  0  0
   -6.9561    1.3095    0.1462 N   0  0  0  0  0  3           0  0  0
   -4.8122    0.0907   -1.5006 N   0  0  0  0  0  3           0  0  0
   -2.6438    0.0749   -2.5208 N   0  0  0  0  0  3           0  0  0
   -5.0674    0.0335    0.8730 N   0  0  0  0  0  3           0  0  0
  -11.3372    0.2147    2.1755 N   0  0  0  0  0  3           0  0  0
    3.9314    3.6673    1.1204 N   0  0  2  0  0  3           0  0  0
   -6.2835    0.6118    1.0418 C   0  0  0  0  0  4           0  0  0
   -8.3940    1.3972    1.9888 C   0  0  0  0  0  4           0  0  0
  -14.4423   -0.0001    0.1422 C   0  0  0  0  0  4           0  0  0
   -0.7396    0.0000    1.1890 C   0  0  0  0  0  4           0  0  0
   -3.9835    0.1031   -2.5532 C   0  0  0  0  0  4           0  0  0
   -4.2385    0.0299   -0.2728 C   0  0  0  0  0  4           0  0  0
   -2.0729    0.0407   -1.3096 C   0  0  0  0  0  4           0  0  0
   -8.1475    1.7553    0.6808 C   0  0  0  0  0  4           0  0  0
  -12.5050   -0.2664    1.5535 C   0  0  0  0  0  4           0  0  0
   -2.8269    0.0244   -0.1214 C   0  0  0  0  0  4           0  0  0
    0.0000    0.0000    0.0000 C   0  0  0  0  0  4           0  0  0
  -13.2977    0.5380    0.7277 C   0  0  0  0  0  4           0  0  0
  -14.8113   -1.3236    0.3612 C   0  0  0  0  0  4           0  0  0
   -2.1386    0.0113    1.1207 C   0  0  0  0  0  4           0  0  0
   -0.6840    0.0269   -1.2262 C   0  0  0  0  0  4           0  0  0
  -12.8732   -1.5993    1.7790 C   0  0  0  0  0  4           0  0  0
  -14.0224   -2.1249    1.1829 C   0  0  0  0  0  4           0  0  0
  -10.8376    1.4994    2.0565 C   0  0  0  0  0  4           0  0  0
    4.5646    4.9911    1.0296 C   0  0  2  0  0  4           0  0  0
   -0.7940   -0.0084    3.5481 C   0  0  0  0  0  4           0  0  0
    4.4116    3.1180    2.3929 C   0  0  0  0  0  4           0  0  0
    4.2509    2.7804   -0.0000 C   0  0  0  0  0  4           0  0  0
   -9.5657    1.7117    2.8451 C   0  0  0  0  0  4           0  0  0
    1.5026    0.0000   -0.0000 C   0  0  0  0  0  4           0  0  0
    4.3999    5.5329    2.4469 C   0  0  0  0  0  4           0  0  0
    4.3286    4.3026    3.3422 C   0  0  0  0  0  4           0  0  0
    3.6384    1.3728   -0.0000 C   0  0  0  0  0  4           0  0  0
    2.1122    1.4009    0.0000 C   0  0  0  0  0  4           0  0  0
  1 16  1  0     0  0
  1 17  1  0     0  0
  2  4  2  0     0  0
  2  5  1  0     0  0
  2  6  1  0     0  0
  2  7  1  0     0  0
  3 18  1  0     0  0
  5 34  1  0     0  0
  8 19  1  0     0  0
  8 35  1  0     0  0
  9 33  2  0     0  0
 10 16  2  0     0  0
 10 23  1  0     0  0
 11 20  1  0     0  0
 11 21  2  0     0  0
 12 20  2  0     0  0
 12 22  1  0     0  0
 13 16  1  0     0  0
 13 21  1  0     0  0
 14 24  1  0     0  0
 14 33  1  0     0  0
 15 34  1  0     0  0
 15 36  1  0     0  0
 15 37  1  0     0  0
 17 23  2  0     0  0
 17 38  1  0     0  0
 18 27  1  0     0  0
 18 28  2  0     0  0
 19 26  2  0     0  0
 19 29  1  0     0  0
 21 25  1  0     0  0
 22 25  1  0     0  0
 22 30  2  0     0  0
 24 27  2  0     0  0
 24 31  1  0     0  0
 25 29  2  0     0  0
 26 30  1  0     0  0
 26 39  1  0     0  0
 28 32  1  0     0  0
 31 32  2  0     0  0
 33 38  1  0     0  0
 34 40  1  0     0  0
 36 41  1  0     0  0
 37 42  1  0     0  0
 39 43  1  0     0  0
 40 41  1  0     0  0
 42 43  1  0     0  0
M  END
> <standard_type>
pIC50

> <# Confs.>
25

> <canonical_smiles>
FC1=CC=CC(NC(CC2=CN=C(NC3=NC=NC4=CC(CCCCN5[C@@H](OP(O)(O)=O)CCC5)=C(OC)C=C34)S2)=O)=C1

> <standard_relation>
=

> <Publication_ID>
nan

> <predicted_activity_value>
8.09151498112135

> <actual_activity_value>
8.045757490560675

> <Compound>
7

> <standard_units>
nM

> hash
12078469371866150626

$$$$
7_
XXILIB    08252103493D 0   0.00000     0.00000

 43 47  0     1  0            999 V2000
   -7.0859    0.4569    2.5689 S   0  0  0  0  0  2           0  0  0
    4.5241    7.3603   -0.1011 P   0  0  2  0  0  5           0  0  0
  -14.2086   -3.0592    2.1221 F   0  0  0  0  0  1           0  0  0
    4.5386    8.2216    1.1281 O   0  0  0  0  0  2           0  0  0
    3.9346    5.8679    0.1039 O   0  0  0  0  0  2           0  0  0
    5.9764    7.1076   -0.7682 O   0  0  0  0  0  2           0  0  0
    3.6496    7.9390   -1.3317 O   0  0  0  0  0  2           0  0  0
   -0.0206   -0.0086    2.3507 O   0  0  0  0  0  2           0  0  0
  -11.4924    0.7113    1.8240 O   0  0  0  0  0  2           0  0  0
   -6.9561    1.3095    0.1462 N   0  0  0  0  0  3           0  0  0
   -4.8122    0.0907   -1.5006 N   0  0  0  0  0  3           0  0  0
   -2.6438    0.0749   -2.5208 N   0  0  0  0  0  3           0  0  0
   -5.0674    0.0335    0.8730 N   0  0  0  0  0  3           0  0  0
  -10.4687   -0.3998    3.5894 N   0  0  0  0  0  3           0  0  0
    3.9314    3.6673    1.1204 N   0  0  2  0  0  3           0  0  0
   -6.2835    0.6118    1.0418 C   0  0  0  0  0  4           0  0  0
   -8.3940    1.3972    1.9888 C   0  0  0  0  0  4           0  0  0
  -13.1659   -2.8759    2.9445 C   0  0  0  0  0  4           0  0  0
   -0.7396    0.0000    1.1890 C   0  0  0  0  0  4           0  0  0
   -3.9835    0.1031   -2.5532 C   0  0  0  0  0  4           0  0  0
   -4.2385    0.0299   -0.2728 C   0  0  0  0  0  4           0  0  0
   -2.0729    0.0407   -1.3096 C   0  0  0  0  0  4           0  0  0
   -8.1475    1.7553    0.6808 C   0  0  0  0  0  4           0  0  0
  -11.2979   -1.5346    3.6707 C   0  0  0  0  0  4           0  0  0
   -2.8269    0.0244   -0.1214 C   0  0  0  0  0  4           0  0  0
    0.0000    0.0000    0.0000 C   0  0  0  0  0  4           0  0  0
  -12.3840   -1.7300    2.8106 C   0  0  0  0  0  4           0  0  0
  -12.8861   -3.8315    3.9162 C   0  0  0  0  0  4           0  0  0
   -2.1386    0.0113    1.1207 C   0  0  0  0  0  4           0  0  0
   -0.6840    0.0269   -1.2262 C   0  0  0  0  0  4           0  0  0
  -11.0130   -2.4928    4.6523 C   0  0  0  0  0  4           0  0  0
  -11.8049   -3.6378    4.7724 C   0  0  0  0  0  4           0  0  0
  -10.6131    0.6341    2.6814 C   0  0  0  0  0  4           0  0  0
    4.5646    4.9911    1.0296 C   0  0  2  0  0  4           0  0  0
   -0.7940   -0.0084    3.5481 C   0  0  0  0  0  4           0  0  0
    4.4116    3.1180    2.3929 C   0  0  0  0  0  4           0  0  0
    4.2509    2.7804   -0.0000 C   0  0  0  0  0  4           0  0  0
   -9.5657    1.7117    2.8451 C   0  0  0  0  0  4           0  0  0
    1.5026    0.0000   -0.0000 C   0  0  0  0  0  4           0  0  0
    4.3999    5.5329    2.4469 C   0  0  0  0  0  4           0  0  0
    4.3286    4.3026    3.3422 C   0  0  0  0  0  4           0  0  0
    3.6384    1.3728   -0.0000 C   0  0  0  0  0  4           0  0  0
    2.1122    1.4009    0.0000 C   0  0  0  0  0  4           0  0  0
  1 16  1  0     0  0
  1 17  1  0     0  0
  2  4  2  0     0  0
  2  5  1  0     0  0
  2  6  1  0     0  0
  2  7  1  0     0  0
  3 18  1  0     0  0
  5 34  1  0     0  0
  8 19  1  0     0  0
  8 35  1  0     0  0
  9 33  2  0     0  0
 10 16  2  0     0  0
 10 23  1  0     0  0
 11 20  1  0     0  0
 11 21  2  0     0  0
 12 20  2  0     0  0
 12 22  1  0     0  0
 13 16  1  0     0  0
 13 21  1  0     0  0
 14 24  1  0     0  0
 14 33  1  0     0  0
 15 34  1  0     0  0
 15 36  1  0     0  0
 15 37  1  0     0  0
 17 23  2  0     0  0
 17 38  1  0     0  0
 18 27  1  0     0  0
 18 28  2  0     0  0
 19 26  2  0     0  0
 19 29  1  0     0  0
 21 25  1  0     0  0
 22 25  1  0     0  0
 22 30  2  0     0  0
 24 27  2  0     0  0
 24 31  1  0     0  0
 25 29  2  0     0  0
 26 30  1  0     0  0
 26 39  1  0     0  0
 28 32  1  0     0  0
 31 32  2  0     0  0
 33 38  1  0     0  0
 34 40  1  0     0  0
 36 41  1  0     0  0
 37 42  1  0     0  0
 39 43  1  0     0  0
 40 41  1  0     0  0
 42 43  1  0     0  0
M  END
> <standard_type>
pIC50

> <# Confs.>
25

> <canonical_smiles>
FC1=CC=CC(NC(CC2=CN=C(NC3=NC=NC4=CC(CCCCN5[C@@H](OP(O)(O)=O)CCC5)=C(OC)C=C34)S2)=O)=C1

> <standard_relation>
=

> <Publication_ID>
nan

> <predicted_activity_value>
8.09151498112135

> <actual_activity_value>
8.045757490560675

> <Compound>
7

> <standard_units>
nM

> hash
12078469371866150626

$$$$
7_
XXILIB    08252103493D 0   0.00000     0.00000

 43 47  0     1  0            999 V2000
   -7.0859    0.4569    2.5689 S   0  0  0  0  0  2           0  0  0
    4.5241   -7.3603    0.1011 P   0  0  2  0  0  5           0  0  0
   -8.4449    7.4312    6.1421 F   0  0  0  0  0  1           0  0  0
    4.5386   -8.2216   -1.1281 O   0  0  0  0  0  2           0  0  0
    3.9346   -5.8679   -0.1039 O   0  0  0  0  0  2           0  0  0
    5.9764   -7.1076    0.7682 O   0  0  0  0  0  2           0  0  0
    3.6496   -7.9390    1.3317 O   0  0  0  0  0  2           0  0  0
   -0.0206   -0.0086    2.3507 O   0  0  0  0  0  2           0  0  0
   -9.6365    4.0936    3.1216 O   0  0  0  0  0  2           0  0  0
   -6.9561    1.3095    0.1462 N   0  0  0  0  0  3           0  0  0
   -4.8122    0.0907   -1.5006 N   0  0  0  0  0  3           0  0  0
   -2.6438    0.0749   -2.5208 N   0  0  0  0  0  3           0  0  0
   -5.0674    0.0335    0.8730 N   0  0  0  0  0  3           0  0  0
   -8.6884    2.8079    4.8088 N   0  0  0  0  0  3           0  0  0
    3.9314   -3.6673   -1.1204 N   0  0  2  0  0  3           0  0  0
   -6.2835    0.6118    1.0418 C   0  0  0  0  0  4           0  0  0
   -8.3940    1.3972    1.9888 C   0  0  0  0  0  4           0  0  0
   -8.2053    6.1363    6.3931 C   0  0  0  0  0  4           0  0  0
   -0.7396    0.0000    1.1890 C   0  0  0  0  0  4           0  0  0
   -3.9835    0.1031   -2.5532 C   0  0  0  0  0  4           0  0  0
   -4.2385    0.0299   -0.2728 C   0  0  0  0  0  4           0  0  0
   -2.0729    0.0407   -1.3096 C   0  0  0  0  0  4           0  0  0
   -8.1475    1.7553    0.6808 C   0  0  0  0  0  4           0  0  0
   -8.3315    3.8260    5.7133 C   0  0  0  0  0  4           0  0  0
   -2.8269    0.0244   -0.1214 C   0  0  0  0  0  4           0  0  0
    0.0000    0.0000    0.0000 C   0  0  0  0  0  4           0  0  0
   -8.5845    5.1776    5.4553 C   0  0  0  0  0  4           0  0  0
   -7.5814    5.7753    7.5831 C   0  0  0  0  0  4           0  0  0
   -2.1386    0.0113    1.1207 C   0  0  0  0  0  4           0  0  0
   -0.6840    0.0269   -1.2262 C   0  0  0  0  0  4           0  0  0
   -7.7016    3.4571    6.9092 C   0  0  0  0  0  4           0  0  0
   -7.3296    4.4299    7.8406 C   0  0  0  0  0  4           0  0  0
   -9.3136    3.0025    3.5900 C   0  0  0  0  0  4           0  0  0
    4.5646   -4.9911   -1.0296 C   0  0  2  0  0  4           0  0  0
   -0.7940   -0.0084    3.5481 C   0  0  0  0  0  4           0  0  0
    4.4116   -3.1180   -2.3929 C   0  0  0  0  0  4           0  0  0
    4.2509   -2.7804    0.0000 C   0  0  0  0  0  4           0  0  0
   -9.5657    1.7117    2.8451 C   0  0  0  0  0  4           0  0  0
    1.5026    0.0000    0.0000 C   0  0  0  0  0  4           0  0  0
    4.3999   -5.5329   -2.4469 C   0  0  0  0  0  4           0  0  0
    4.3286   -4.3026   -3.3422 C   0  0  0  0  0  4           0  0  0
    3.6384   -1.3728    0.0000 C   0  0  0  0  0  4           0  0  0
    2.1122   -1.4009    0.0000 C   0  0  0  0  0  4           0  0  0
  1 16  1  0     0  0
  1 17  1  0     0  0
  2  4  2  0     0  0
  2  5  1  0     0  0
  2  6  1  0     0  0
  2  7  1  0     0  0
  3 18  1  0     0  0
  5 34  1  0     0  0
  8 19  1  0     0  0
  8 35  1  0     0  0
  9 33  2  0     0  0
 10 16  2  0     0  0
 10 23  1  0     0  0
 11 20  1  0     0  0
 11 21  2  0     0  0
 12 20  2  0     0  0
 12 22  1  0     0  0
 13 16  1  0     0  0
 13 21  1  0     0  0
 14 24  1  0     0  0
 14 33  1  0     0  0
 15 34  1  0     0  0
 15 36  1  0     0  0
 15 37  1  0     0  0
 17 23  2  0     0  0
 17 38  1  0     0  0
 18 27  1  0     0  0
 18 28  2  0     0  0
 19 26  2  0     0  0
 19 29  1  0     0  0
 21 25  1  0     0  0
 22 25  1  0     0  0
 22 30  2  0     0  0
 24 27  2  0     0  0
 24 31  1  0     0  0
 25 29  2  0     0  0
 26 30  1  0     0  0
 26 39  1  0     0  0
 28 32  1  0     0  0
 31 32  2  0     0  0
 33 38  1  0     0  0
 34 40  1  0     0  0
 36 41  1  0     0  0
 37 42  1  0     0  0
 39 43  1  0     0  0
 40 41  1  0     0  0
 42 43  1  0     0  0
M  END
> <standard_type>
pIC50

> <# Confs.>
25

> <canonical_smiles>
FC1=CC=CC(NC(CC2=CN=C(NC3=NC=NC4=CC(CCCCN5[C@@H](OP(O)(O)=O)CCC5)=C(OC)C=C34)S2)=O)=C1

> <standard_relation>
=

> <Publication_ID>
nan

> <predicted_activity_value>
8.09151498112135

> <actual_activity_value>
8.045757490560675

> <Compound>
7

> <standard_units>
nM

> hash
12078469371866150626

$$$$
7_
XXILIB    08252103493D 0   0.00000     0.00000

 43 47  0     1  0            999 V2000
   -7.0859    0.4569    2.5689 S   0  0  0  0  0  2           0  0  0
    4.5241   -7.3603    0.1011 P   0  0  2  0  0  5           0  0  0
   -8.4522    7.4295    6.1476 F   0  0  0  0  0  1           0  0  0
    4.5386   -8.2216   -1.1281 O   0  0  0  0  0  2           0  0  0
    3.9346   -5.8679   -0.1039 O   0  0  0  0  0  2           0  0  0
    5.9764   -7.1076    0.7682 O   0  0  0  0  0  2           0  0  0
    3.6496   -7.9390    1.3317 O   0  0  0  0  0  2           0  0  0
   -0.0206   -0.0086    2.3507 O   0  0  0  0  0  2           0  0  0
   -8.7747    3.0167    4.6962 O   0  0  0  0  0  2           0  0  0
   -6.9561    1.3095    0.1462 N   0  0  0  0  0  3           0  0  0
   -4.8122    0.0907   -1.5006 N   0  0  0  0  0  3           0  0  0
   -2.6438    0.0749   -2.5208 N   0  0  0  0  0  3           0  0  0
   -5.0674    0.0335    0.8730 N   0  0  0  0  0  3           0  0  0
   -9.7590    4.1173    2.9021 N   0  0  0  0  0  3           0  0  0
    3.9314   -3.6673   -1.1204 N   0  0  2  0  0  3           0  0  0
   -6.2835    0.6118    1.0418 C   0  0  0  0  0  4           0  0  0
   -8.3940    1.3972    1.9888 C   0  0  0  0  0  4           0  0  0
   -9.0061    7.1151    4.9680 C   0  0  0  0  0  4           0  0  0
   -0.7396    0.0000    1.1890 C   0  0  0  0  0  4           0  0  0
   -3.9835    0.1031   -2.5532 C   0  0  0  0  0  4           0  0  0
   -4.2385    0.0299   -0.2728 C   0  0  0  0  0  4           0  0  0
   -2.0729    0.0407   -1.3096 C   0  0  0  0  0  4           0  0  0
   -8.1475    1.7553    0.6808 C   0  0  0  0  0  4           0  0  0
   -9.6571    5.4472    3.3524 C   0  0  0  0  0  4           0  0  0
   -2.8269    0.0244   -0.1214 C   0  0  0  0  0  4           0  0  0
    0.0000    0.0000    0.0000 C   0  0  0  0  0  4           0  0  0
   -9.0754    5.7779    4.5811 C   0  0  0  0  0  4           0  0  0
   -9.5025    8.1288    4.1546 C   0  0  0  0  0  4           0  0  0
   -2.1386    0.0113    1.1207 C   0  0  0  0  0  4           0  0  0
   -0.6840    0.0269   -1.2262 C   0  0  0  0  0  4           0  0  0
  -10.1605    6.4641    2.5303 C   0  0  0  0  0  4           0  0  0
  -10.0814    7.8002    2.9312 C   0  0  0  0  0  4           0  0  0
   -9.3136    3.0025    3.5900 C   0  0  0  0  0  4           0  0  0
    4.5646   -4.9911   -1.0296 C   0  0  2  0  0  4           0  0  0
   -0.7940   -0.0084    3.5481 C   0  0  0  0  0  4           0  0  0
    4.4116   -3.1180   -2.3929 C   0  0  0  0  0  4           0  0  0
    4.2509   -2.7804    0.0000 C   0  0  0  0  0  4           0  0  0
   -9.5657    1.7117    2.8451 C   0  0  0  0  0  4           0  0  0
    1.5026    0.0000    0.0000 C   0  0  0  0  0  4           0  0  0
    4.3999   -5.5329   -2.4469 C   0  0  0  0  0  4           0  0  0
    4.3286   -4.3026   -3.3422 C   0  0  0  0  0  4           0  0  0
    3.6384   -1.3728    0.0000 C   0  0  0  0  0  4           0  0  0
    2.1122   -1.4009    0.0000 C   0  0  0  0  0  4           0  0  0
  1 16  1  0     0  0
  1 17  1  0     0  0
  2  4  2  0     0  0
  2  5  1  0     0  0
  2  6  1  0     0  0
  2  7  1  0     0  0
  3 18  1  0     0  0
  5 34  1  0     0  0
  8 19  1  0     0  0
  8 35  1  0     0  0
  9 33  2  0     0  0
 10 16  2  0     0  0
 10 23  1  0     0  0
 11 20  1  0     0  0
 11 21  2  0     0  0
 12 20  2  0     0  0
 12 22  1  0     0  0
 13 16  1  0     0  0
 13 21  1  0     0  0
 14 24  1  0     0  0
 14 33  1  0     0  0
 15 34  1  0     0  0
 15 36  1  0     0  0
 15 37  1  0     0  0
 17 23  2  0     0  0
 17 38  1  0     0  0
 18 27  1  0     0  0
 18 28  2  0     0  0
 19 26  2  0     0  0
 19 29  1  0     0  0
 21 25  1  0     0  0
 22 25  1  0     0  0
 22 30  2  0     0  0
 24 27  2  0     0  0
 24 31  1  0     0  0
 25 29  2  0     0  0
 26 30  1  0     0  0
 26 39  1  0     0  0
 28 32  1  0     0  0
 31 32  2  0     0  0
 33 38  1  0     0  0
 34 40  1  0     0  0
 36 41  1  0     0  0
 37 42  1  0     0  0
 39 43  1  0     0  0
 40 41  1  0     0  0
 42 43  1  0     0  0
M  END
> <standard_type>
pIC50

> <# Confs.>
25

> <canonical_smiles>
FC1=CC=CC(NC(CC2=CN=C(NC3=NC=NC4=CC(CCCCN5[C@@H](OP(O)(O)=O)CCC5)=C(OC)C=C34)S2)=O)=C1

> <standard_relation>
=

> <Publication_ID>
nan

> <predicted_activity_value>
8.09151498112135

> <actual_activity_value>
8.045757490560675

> <Compound>
7

> <standard_units>
nM

> hash
12078469371866150626

$$$$
7_
XXILIB    08252103493D 0   0.00000     0.00000

 43 47  0     1  0            999 V2000
   -7.0859    0.4569    2.5689 S   0  0  0  0  0  2           0  0  0
    4.5241   -7.3603    0.1011 P   0  0  2  0  0  5           0  0  0
  -11.1268    8.1907    2.1937 F   0  0  0  0  0  1           0  0  0
    4.5386   -8.2216   -1.1281 O   0  0  0  0  0  2           0  0  0
    3.9346   -5.8679   -0.1039 O   0  0  0  0  0  2           0  0  0
    5.9764   -7.1076    0.7682 O   0  0  0  0  0  2           0  0  0
    3.6496   -7.9390    1.3317 O   0  0  0  0  0  2           0  0  0
   -0.0206   -0.0086    2.3507 O   0  0  0  0  0  2           0  0  0
  -10.7120    3.5660    1.8437 O   0  0  0  0  0  2           0  0  0
   -6.9561    1.3095    0.1462 N   0  0  0  0  0  3           0  0  0
   -4.8122    0.0907   -1.5006 N   0  0  0  0  0  3           0  0  0
   -2.6438    0.0749   -2.5208 N   0  0  0  0  0  3           0  0  0
   -5.0674    0.0335    0.8730 N   0  0  0  0  0  3           0  0  0
   -9.2537    3.9819    3.6042 N   0  0  0  0  0  3           0  0  0
    3.9314   -3.6673   -1.1204 N   0  0  2  0  0  3           0  0  0
   -6.2835    0.6118    1.0418 C   0  0  0  0  0  4           0  0  0
   -8.3940    1.3972    1.9888 C   0  0  0  0  0  4           0  0  0
  -10.3182    7.4931    3.0040 C   0  0  0  0  0  4           0  0  0
   -0.7396    0.0000    1.1890 C   0  0  0  0  0  4           0  0  0
   -3.9835    0.1031   -2.5532 C   0  0  0  0  0  4           0  0  0
   -4.2385    0.0299   -0.2728 C   0  0  0  0  0  4           0  0  0
   -2.0729    0.0407   -1.3096 C   0  0  0  0  0  4           0  0  0
   -8.1475    1.7553    0.6808 C   0  0  0  0  0  4           0  0  0
   -9.3864    5.3802    3.6993 C   0  0  0  0  0  4           0  0  0
   -2.8269    0.0244   -0.1214 C   0  0  0  0  0  4           0  0  0
    0.0000    0.0000    0.0000 C   0  0  0  0  0  4           0  0  0
  -10.2330    6.1097    2.8575 C   0  0  0  0  0  4           0  0  0
   -9.5788    8.1635    3.9734 C   0  0  0  0  0  4           0  0  0
   -2.1386    0.0113    1.1207 C   0  0  0  0  0  4           0  0  0
   -0.6840    0.0269   -1.2262 C   0  0  0  0  0  4           0  0  0
   -8.6380    6.0506    4.6758 C   0  0  0  0  0  4           0  0  0
   -8.7361    7.4377    4.8118 C   0  0  0  0  0  4           0  0  0
   -9.9187    3.1741    2.6989 C   0  0  0  0  0  4           0  0  0
    4.5646   -4.9911   -1.0296 C   0  0  2  0  0  4           0  0  0
   -0.7940   -0.0084    3.5481 C   0  0  0  0  0  4           0  0  0
    4.4116   -3.1180   -2.3929 C   0  0  0  0  0  4           0  0  0
    4.2509   -2.7804    0.0000 C   0  0  0  0  0  4           0  0  0
   -9.5657    1.7117    2.8451 C   0  0  0  0  0  4           0  0  0
    1.5026    0.0000    0.0000 C   0  0  0  0  0  4           0  0  0
    4.3999   -5.5329   -2.4469 C   0  0  0  0  0  4           0  0  0
    4.3286   -4.3026   -3.3422 C   0  0  0  0  0  4           0  0  0
    3.6384   -1.3728    0.0000 C   0  0  0  0  0  4           0  0  0
    2.1122   -1.4009    0.0000 C   0  0  0  0  0  4           0  0  0
  1 16  1  0     0  0
  1 17  1  0     0  0
  2  4  2  0     0  0
  2  5  1  0     0  0
  2  6  1  0     0  0
  2  7  1  0     0  0
  3 18  1  0     0  0
  5 34  1  0     0  0
  8 19  1  0     0  0
  8 35  1  0     0  0
  9 33  2  0     0  0
 10 16  2  0     0  0
 10 23  1  0     0  0
 11 20  1  0     0  0
 11 21  2  0     0  0
 12 20  2  0     0  0
 12 22  1  0     0  0
 13 16  1  0     0  0
 13 21  1  0     0  0
 14 24  1  0     0  0
 14 33  1  0     0  0
 15 34  1  0     0  0
 15 36  1  0     0  0
 15 37  1  0     0  0
 17 23  2  0     0  0
 17 38  1  0     0  0
 18 27  1  0     0  0
 18 28  2  0     0  0
 19 26  2  0     0  0
 19 29  1  0     0  0
 21 25  1  0     0  0
 22 25  1  0     0  0
 22 30  2  0     0  0
 24 27  2  0     0  0
 24 31  1  0     0  0
 25 29  2  0     0  0
 26 30  1  0     0  0
 26 39  1  0     0  0
 28 32  1  0     0  0
 31 32  2  0     0  0
 33 38  1  0     0  0
 34 40  1  0     0  0
 36 41  1  0     0  0
 37 42  1  0     0  0
 39 43  1  0     0  0
 40 41  1  0     0  0
 42 43  1  0     0  0
M  END
> <standard_type>
pIC50

> <# Confs.>
25

> <canonical_smiles>
FC1=CC=CC(NC(CC2=CN=C(NC3=NC=NC4=CC(CCCCN5[C@@H](OP(O)(O)=O)CCC5)=C(OC)C=C34)S2)=O)=C1

> <standard_relation>
=

> <Publication_ID>
nan

> <predicted_activity_value>
8.09151498112135

> <actual_activity_value>
8.045757490560675

> <Compound>
7

> <standard_units>
nM

> hash
12078469371866150626

$$$$
7_
XXILIB    08252103493D 0   0.00000     0.00000

 43 47  0     1  0            999 V2000
   -7.0859    0.4569    2.5689 S   0  0  0  0  0  2           0  0  0
    3.8231    1.4557   -4.3729 P   0  0  2  0  0  5           0  0  0
  -14.2024   -3.0645    2.1177 F   0  0  0  0  0  1           0  0  0
    3.8478    2.4030   -5.5369 O   0  0  0  0  0  2           0  0  0
    3.4904    2.1264   -2.9389 O   0  0  0  0  0  2           0  0  0
    5.2118    0.6676   -4.1115 O   0  0  0  0  0  2           0  0  0
    2.7382    0.2622   -4.4851 O   0  0  0  0  0  2           0  0  0
   -0.0206   -0.0086    2.3507 O   0  0  0  0  0  2           0  0  0
  -10.6305   -0.3656    3.3987 O   0  0  0  0  0  2           0  0  0
   -6.9561    1.3095    0.1462 N   0  0  0  0  0  3           0  0  0
   -4.8122    0.0907   -1.5006 N   0  0  0  0  0  3           0  0  0
   -2.6438    0.0749   -2.5208 N   0  0  0  0  0  3           0  0  0
   -5.0674    0.0335    0.8730 N   0  0  0  0  0  3           0  0  0
  -11.5040    0.9000    1.6568 N   0  0  0  0  0  3           0  0  0
    3.9314    3.6673   -1.1204 N   0  0  2  0  0  3           0  0  0
   -6.2835    0.6118    1.0418 C   0  0  0  0  0  4           0  0  0
   -8.3940    1.3972    1.9888 C   0  0  0  0  0  4           0  0  0
  -13.9394   -1.9045    1.4994 C   0  0  0  0  0  4           0  0  0
   -0.7396    0.0000    1.1890 C   0  0  0  0  0  4           0  0  0
   -3.9835    0.1031   -2.5532 C   0  0  0  0  0  4           0  0  0
   -4.2385    0.0299   -0.2728 C   0  0  0  0  0  4           0  0  0
   -2.0729    0.0407   -1.3096 C   0  0  0  0  0  4           0  0  0
   -8.1475    1.7553    0.6808 C   0  0  0  0  0  4           0  0  0
  -12.5797    0.0749    1.2778 C   0  0  0  0  0  4           0  0  0
   -2.8269    0.0244   -0.1214 C   0  0  0  0  0  4           0  0  0
    0.0000    0.0000    0.0000 C   0  0  0  0  0  4           0  0  0
  -12.8586   -1.1340    1.9245 C   0  0  0  0  0  4           0  0  0
  -14.7488   -1.4937    0.4450 C   0  0  0  0  0  4           0  0  0
   -2.1386    0.0113    1.1207 C   0  0  0  0  0  4           0  0  0
   -0.6840    0.0269   -1.2262 C   0  0  0  0  0  4           0  0  0
  -13.3904    0.4923    0.2139 C   0  0  0  0  0  4           0  0  0
  -14.4719   -0.2902   -0.1990 C   0  0  0  0  0  4           0  0  0
  -10.6131    0.6341    2.6814 C   0  0  0  0  0  4           0  0  0
    4.3452    3.1428   -2.4301 C   0  0  2  0  0  4           0  0  0
   -0.7940   -0.0084    3.5481 C   0  0  0  0  0  4           0  0  0
    4.6294    4.9521   -1.0032 C   0  0  0  0  0  4           0  0  0
    4.2509    2.7804    0.0000 C   0  0  0  0  0  4           0  0  0
   -9.5657    1.7117    2.8451 C   0  0  0  0  0  4           0  0  0
    1.5026    0.0000    0.0000 C   0  0  0  0  0  4           0  0  0
    4.2629    4.3793   -3.3210 C   0  0  0  0  0  4           0  0  0
    4.4783    5.5631   -2.3871 C   0  0  0  0  0  4           0  0  0
    3.6384    1.3728    0.0000 C   0  0  0  0  0  4           0  0  0
    2.1122    1.4009    0.0000 C   0  0  0  0  0  4           0  0  0
  1 16  1  0     0  0
  1 17  1  0     0  0
  2  4  2  0     0  0
  2  5  1  0     0  0
  2  6  1  0     0  0
  2  7  1  0     0  0
  3 18  1  0     0  0
  5 34  1  0     0  0
  8 19  1  0     0  0
  8 35  1  0     0  0
  9 33  2  0     0  0
 10 16  2  0     0  0
 10 23  1  0     0  0
 11 20  1  0     0  0
 11 21  2  0     0  0
 12 20  2  0     0  0
 12 22  1  0     0  0
 13 16  1  0     0  0
 13 21  1  0     0  0
 14 24  1  0     0  0
 14 33  1  0     0  0
 15 34  1  0     0  0
 15 36  1  0     0  0
 15 37  1  0     0  0
 17 23  2  0     0  0
 17 38  1  0     0  0
 18 27  1  0     0  0
 18 28  2  0     0  0
 19 26  2  0     0  0
 19 29  1  0     0  0
 21 25  1  0     0  0
 22 25  1  0     0  0
 22 30  2  0     0  0
 24 27  2  0     0  0
 24 31  1  0     0  0
 25 29  2  0     0  0
 26 30  1  0     0  0
 26 39  1  0     0  0
 28 32  1  0     0  0
 31 32  2  0     0  0
 33 38  1  0     0  0
 34 40  1  0     0  0
 36 41  1  0     0  0
 37 42  1  0     0  0
 39 43  1  0     0  0
 40 41  1  0     0  0
 42 43  1  0     0  0
M  END
> <standard_type>
pIC50

> <# Confs.>
25

> <canonical_smiles>
FC1=CC=CC(NC(CC2=CN=C(NC3=NC=NC4=CC(CCCCN5[C@@H](OP(O)(O)=O)CCC5)=C(OC)C=C34)S2)=O)=C1

> <standard_relation>
=

> <Publication_ID>
nan

> <predicted_activity_value>
8.09151498112135

> <actual_activity_value>
8.045757490560675

> <Compound>
7

> <standard_units>
nM

> hash
12078469371866150626

$$$$
7_
XXILIB    08252103493D 0   0.00000     0.00000

 43 47  0     1  0            999 V2000
   -7.0859    0.4569    2.5689 S   0  0  0  0  0  2           0  0  0
    6.6127    6.4514    1.4162 P   0  0  2  0  0  5           0  0  0
  -15.2028    0.7735   -0.6453 F   0  0  0  0  0  1           0  0  0
    8.0577    6.6904    1.0877 O   0  0  0  0  0  2           0  0  0
    6.1105    4.9211    1.2661 O   0  0  0  0  0  2           0  0  0
    5.5650    7.2866    0.5092 O   0  0  0  0  0  2           0  0  0
    6.1815    6.8373    2.9259 O   0  0  0  0  0  2           0  0  0
   -0.0206   -0.0086    2.3507 O   0  0  0  0  0  2           0  0  0
  -11.3494    2.4043    1.3981 O   0  0  0  0  0  2           0  0  0
   -6.9561    1.3095    0.1462 N   0  0  0  0  0  3           0  0  0
   -4.8122    0.0907   -1.5006 N   0  0  0  0  0  3           0  0  0
   -2.6438    0.0749   -2.5208 N   0  0  0  0  0  3           0  0  0
   -5.0674    0.0335    0.8730 N   0  0  0  0  0  3           0  0  0
  -11.3372    0.2147    2.1755 N   0  0  0  0  0  3           0  0  0
    5.7109    2.8930   -0.0000 N   0  0  2  0  0  3           0  0  0
   -6.2835    0.6118    1.0418 C   0  0  0  0  0  4           0  0  0
   -8.3940    1.3972    1.9888 C   0  0  0  0  0  4           0  0  0
  -14.4423   -0.0001    0.1422 C   0  0  0  0  0  4           0  0  0
   -0.7396    0.0000    1.1890 C   0  0  0  0  0  4           0  0  0
   -3.9835    0.1031   -2.5532 C   0  0  0  0  0  4           0  0  0
   -4.2385    0.0299   -0.2728 C   0  0  0  0  0  4           0  0  0
   -2.0729    0.0407   -1.3096 C   0  0  0  0  0  4           0  0  0
   -8.1475    1.7553    0.6808 C   0  0  0  0  0  4           0  0  0
  -12.5050   -0.2664    1.5535 C   0  0  0  0  0  4           0  0  0
   -2.8269    0.0244   -0.1214 C   0  0  0  0  0  4           0  0  0
    0.0000    0.0000    0.0000 C   0  0  0  0  0  4           0  0  0
  -13.2977    0.5380    0.7277 C   0  0  0  0  0  4           0  0  0
  -14.8113   -1.3236    0.3612 C   0  0  0  0  0  4           0  0  0
   -2.1386    0.0113    1.1207 C   0  0  0  0  0  4           0  0  0
   -0.6840    0.0269   -1.2262 C   0  0  0  0  0  4           0  0  0
  -12.8732   -1.5993    1.7790 C   0  0  0  0  0  4           0  0  0
  -14.0224   -2.1249    1.1829 C   0  0  0  0  0  4           0  0  0
  -10.8376    1.4994    2.0565 C   0  0  0  0  0  4           0  0  0
    6.1998    4.2795    0.0000 C   0  0  2  0  0  4           0  0  0
   -0.7940   -0.0084    3.5481 C   0  0  0  0  0  4           0  0  0
    6.2944    2.2987   -1.2074 C   0  0  0  0  0  4           0  0  0
    4.2509    2.7804    0.0000 C   0  0  0  0  0  4           0  0  0
   -9.5657    1.7117    2.8451 C   0  0  0  0  0  4           0  0  0
    1.5026   -0.0000    0.0000 C   0  0  0  0  0  4           0  0  0
    7.6657    4.1118   -0.3906 C   0  0  0  0  0  4           0  0  0
    7.7201    2.8269   -1.2068 C   0  0  0  0  0  4           0  0  0
    3.6384    1.3728   -0.0000 C   0  0  0  0  0  4           0  0  0
    2.1122    1.4009    0.0000 C   0  0  0  0  0  4           0  0  0
  1 16  1  0     0  0
  1 17  1  0     0  0
  2  4  2  0     0  0
  2  5  1  0     0  0
  2  6  1  0     0  0
  2  7  1  0     0  0
  3 18  1  0     0  0
  5 34  1  0     0  0
  8 19  1  0     0  0
  8 35  1  0     0  0
  9 33  2  0     0  0
 10 16  2  0     0  0
 10 23  1  0     0  0
 11 20  1  0     0  0
 11 21  2  0     0  0
 12 20  2  0     0  0
 12 22  1  0     0  0
 13 16  1  0     0  0
 13 21  1  0     0  0
 14 24  1  0     0  0
 14 33  1  0     0  0
 15 34  1  0     0  0
 15 36  1  0     0  0
 15 37  1  0     0  0
 17 23  2  0     0  0
 17 38  1  0     0  0
 18 27  1  0     0  0
 18 28  2  0     0  0
 19 26  2  0     0  0
 19 29  1  0     0  0
 21 25  1  0     0  0
 22 25  1  0     0  0
 22 30  2  0     0  0
 24 27  2  0     0  0
 24 31  1  0     0  0
 25 29  2  0     0  0
 26 30  1  0     0  0
 26 39  1  0     0  0
 28 32  1  0     0  0
 31 32  2  0     0  0
 33 38  1  0     0  0
 34 40  1  0     0  0
 36 41  1  0     0  0
 37 42  1  0     0  0
 39 43  1  0     0  0
 40 41  1  0     0  0
 42 43  1  0     0  0
M  END
> <standard_type>
pIC50

> <# Confs.>
25

> <canonical_smiles>
FC1=CC=CC(NC(CC2=CN=C(NC3=NC=NC4=CC(CCCCN5[C@@H](OP(O)(O)=O)CCC5)=C(OC)C=C34)S2)=O)=C1

> <standard_relation>
=

> <Publication_ID>
nan

> <predicted_activity_value>
8.09151498112135

> <actual_activity_value>
8.045757490560675

> <Compound>
7

> <standard_units>
nM

> hash
12078469371866150626

$$$$
7_
XXILIB    08252103493D 0   0.00000     0.00000

 43 47  0     1  0            999 V2000
   -7.0859    0.4569    2.5689 S   0  0  0  0  0  2           0  0  0
    4.5241    7.3603   -0.1011 P   0  0  2  0  0  5           0  0  0
  -11.1268    8.1907    2.1937 F   0  0  0  0  0  1           0  0  0
    4.5386    8.2216    1.1281 O   0  0  0  0  0  2           0  0  0
    3.9346    5.8679    0.1039 O   0  0  0  0  0  2           0  0  0
    5.9764    7.1076   -0.7682 O   0  0  0  0  0  2           0  0  0
    3.6496    7.9390   -1.3317 O   0  0  0  0  0  2           0  0  0
   -0.0206   -0.0086    2.3507 O   0  0  0  0  0  2           0  0  0
  -10.7120    3.5660    1.8437 O   0  0  0  0  0  2           0  0  0
   -6.9561    1.3095    0.1462 N   0  0  0  0  0  3           0  0  0
   -4.8122    0.0907   -1.5006 N   0  0  0  0  0  3           0  0  0
   -2.6438    0.0749   -2.5208 N   0  0  0  0  0  3           0  0  0
   -5.0674    0.0335    0.8730 N   0  0  0  0  0  3           0  0  0
   -9.2537    3.9819    3.6042 N   0  0  0  0  0  3           0  0  0
    3.9314    3.6673    1.1204 N   0  0  2  0  0  3           0  0  0
   -6.2835    0.6118    1.0418 C   0  0  0  0  0  4           0  0  0
   -8.3940    1.3972    1.9888 C   0  0  0  0  0  4           0  0  0
  -10.3182    7.4931    3.0040 C   0  0  0  0  0  4           0  0  0
   -0.7396    0.0000    1.1890 C   0  0  0  0  0  4           0  0  0
   -3.9835    0.1031   -2.5532 C   0  0  0  0  0  4           0  0  0
   -4.2385    0.0299   -0.2728 C   0  0  0  0  0  4           0  0  0
   -2.0729    0.0407   -1.3096 C   0  0  0  0  0  4           0  0  0
   -8.1475    1.7553    0.6808 C   0  0  0  0  0  4           0  0  0
   -9.3864    5.3802    3.6993 C   0  0  0  0  0  4           0  0  0
   -2.8269    0.0244   -0.1214 C   0  0  0  0  0  4           0  0  0
    0.0000    0.0000    0.0000 C   0  0  0  0  0  4           0  0  0
  -10.2330    6.1097    2.8575 C   0  0  0  0  0  4           0  0  0
   -9.5788    8.1635    3.9734 C   0  0  0  0  0  4           0  0  0
   -2.1386    0.0113    1.1207 C   0  0  0  0  0  4           0  0  0
   -0.6840    0.0269   -1.2262 C   0  0  0  0  0  4           0  0  0
   -8.6380    6.0506    4.6758 C   0  0  0  0  0  4           0  0  0
   -8.7361    7.4377    4.8118 C   0  0  0  0  0  4           0  0  0
   -9.9187    3.1741    2.6989 C   0  0  0  0  0  4           0  0  0
    4.5646    4.9911    1.0296 C   0  0  2  0  0  4           0  0  0
   -0.7940   -0.0084    3.5481 C   0  0  0  0  0  4           0  0  0
    4.4116    3.1180    2.3929 C   0  0  0  0  0  4           0  0  0
    4.2509    2.7804   -0.0000 C   0  0  0  0  0  4           0  0  0
   -9.5657    1.7117    2.8451 C   0  0  0  0  0  4           0  0  0
    1.5026    0.0000   -0.0000 C   0  0  0  0  0  4           0  0  0
    4.3999    5.5329    2.4469 C   0  0  0  0  0  4           0  0  0
    4.3286    4.3026    3.3422 C   0  0  0  0  0  4           0  0  0
    3.6384    1.3728   -0.0000 C   0  0  0  0  0  4           0  0  0
    2.1122    1.4009    0.0000 C   0  0  0  0  0  4           0  0  0
  1 16  1  0     0  0
  1 17  1  0     0  0
  2  4  2  0     0  0
  2  5  1  0     0  0
  2  6  1  0     0  0
  2  7  1  0     0  0
  3 18  1  0     0  0
  5 34  1  0     0  0
  8 19  1  0     0  0
  8 35  1  0     0  0
  9 33  2  0     0  0
 10 16  2  0     0  0
 10 23  1  0     0  0
 11 20  1  0     0  0
 11 21  2  0     0  0
 12 20  2  0     0  0
 12 22  1  0     0  0
 13 16  1  0     0  0
 13 21  1  0     0  0
 14 24  1  0     0  0
 14 33  1  0     0  0
 15 34  1  0     0  0
 15 36  1  0     0  0
 15 37  1  0     0  0
 17 23  2  0     0  0
 17 38  1  0     0  0
 18 27  1  0     0  0
 18 28  2  0     0  0
 19 26  2  0     0  0
 19 29  1  0     0  0
 21 25  1  0     0  0
 22 25  1  0     0  0
 22 30  2  0     0  0
 24 27  2  0     0  0
 24 31  1  0     0  0
 25 29  2  0     0  0
 26 30  1  0     0  0
 26 39  1  0     0  0
 28 32  1  0     0  0
 31 32  2  0     0  0
 33 38  1  0     0  0
 34 40  1  0     0  0
 36 41  1  0     0  0
 37 42  1  0     0  0
 39 43  1  0     0  0
 40 41  1  0     0  0
 42 43  1  0     0  0
M  END
> <standard_type>
pIC50

> <# Confs.>
25

> <canonical_smiles>
FC1=CC=CC(NC(CC2=CN=C(NC3=NC=NC4=CC(CCCCN5[C@@H](OP(O)(O)=O)CCC5)=C(OC)C=C34)S2)=O)=C1

> <standard_relation>
=

> <Publication_ID>
nan

> <predicted_activity_value>
8.09151498112135

> <actual_activity_value>
8.045757490560675

> <Compound>
7

> <standard_units>
nM

> hash
12078469371866150626

$$$$
7_
XXILIB    08252103493D 0   0.00000     0.00000

 43 47  0     1  0            999 V2000
   -7.0859    0.4569    2.5689 S   0  0  0  0  0  2           0  0  0
    4.5241    7.3603   -0.1011 P   0  0  2  0  0  5           0  0  0
   -8.4449    7.4312    6.1421 F   0  0  0  0  0  1           0  0  0
    4.5386    8.2216    1.1281 O   0  0  0  0  0  2           0  0  0
    3.9346    5.8679    0.1039 O   0  0  0  0  0  2           0  0  0
    5.9764    7.1076   -0.7682 O   0  0  0  0  0  2           0  0  0
    3.6496    7.9390   -1.3317 O   0  0  0  0  0  2           0  0  0
   -0.0206   -0.0086    2.3507 O   0  0  0  0  0  2           0  0  0
   -9.6365    4.0936    3.1216 O   0  0  0  0  0  2           0  0  0
   -6.9561    1.3095    0.1462 N   0  0  0  0  0  3           0  0  0
   -4.8122    0.0907   -1.5006 N   0  0  0  0  0  3           0  0  0
   -2.6438    0.0749   -2.5208 N   0  0  0  0  0  3           0  0  0
   -5.0674    0.0335    0.8730 N   0  0  0  0  0  3           0  0  0
   -8.6884    2.8079    4.8088 N   0  0  0  0  0  3           0  0  0
    3.9314    3.6673    1.1204 N   0  0  2  0  0  3           0  0  0
   -6.2835    0.6118    1.0418 C   0  0  0  0  0  4           0  0  0
   -8.3940    1.3972    1.9888 C   0  0  0  0  0  4           0  0  0
   -8.2053    6.1363    6.3931 C   0  0  0  0  0  4           0  0  0
   -0.7396    0.0000    1.1890 C   0  0  0  0  0  4           0  0  0
   -3.9835    0.1031   -2.5532 C   0  0  0  0  0  4           0  0  0
   -4.2385    0.0299   -0.2728 C   0  0  0  0  0  4           0  0  0
   -2.0729    0.0407   -1.3096 C   0  0  0  0  0  4           0  0  0
   -8.1475    1.7553    0.6808 C   0  0  0  0  0  4           0  0  0
   -8.3315    3.8260    5.7133 C   0  0  0  0  0  4           0  0  0
   -2.8269    0.0244   -0.1214 C   0  0  0  0  0  4           0  0  0
    0.0000    0.0000    0.0000 C   0  0  0  0  0  4           0  0  0
   -8.5845    5.1776    5.4553 C   0  0  0  0  0  4           0  0  0
   -7.5814    5.7753    7.5831 C   0  0  0  0  0  4           0  0  0
   -2.1386    0.0113    1.1207 C   0  0  0  0  0  4           0  0  0
   -0.6840    0.0269   -1.2262 C   0  0  0  0  0  4           0  0  0
   -7.7016    3.4571    6.9092 C   0  0  0  0  0  4           0  0  0
   -7.3296    4.4299    7.8406 C   0  0  0  0  0  4           0  0  0
   -9.3136    3.0025    3.5900 C   0  0  0  0  0  4           0  0  0
    4.5646    4.9911    1.0296 C   0  0  2  0  0  4           0  0  0
   -0.7940   -0.0084    3.5481 C   0  0  0  0  0  4           0  0  0
    4.4116    3.1180    2.3929 C   0  0  0  0  0  4           0  0  0
    4.2509    2.7804   -0.0000 C   0  0  0  0  0  4           0  0  0
   -9.5657    1.7117    2.8451 C   0  0  0  0  0  4           0  0  0
    1.5026    0.0000   -0.0000 C   0  0  0  0  0  4           0  0  0
    4.3999    5.5329    2.4469 C   0  0  0  0  0  4           0  0  0
    4.3286    4.3026    3.3422 C   0  0  0  0  0  4           0  0  0
    3.6384    1.3728   -0.0000 C   0  0  0  0  0  4           0  0  0
    2.1122    1.4009    0.0000 C   0  0  0  0  0  4           0  0  0
  1 16  1  0     0  0
  1 17  1  0     0  0
  2  4  2  0     0  0
  2  5  1  0     0  0
  2  6  1  0     0  0
  2  7  1  0     0  0
  3 18  1  0     0  0
  5 34  1  0     0  0
  8 19  1  0     0  0
  8 35  1  0     0  0
  9 33  2  0     0  0
 10 16  2  0     0  0
 10 23  1  0     0  0
 11 20  1  0     0  0
 11 21  2  0     0  0
 12 20  2  0     0  0
 12 22  1  0     0  0
 13 16  1  0     0  0
 13 21  1  0     0  0
 14 24  1  0     0  0
 14 33  1  0     0  0
 15 34  1  0     0  0
 15 36  1  0     0  0
 15 37  1  0     0  0
 17 23  2  0     0  0
 17 38  1  0     0  0
 18 27  1  0     0  0
 18 28  2  0     0  0
 19 26  2  0     0  0
 19 29  1  0     0  0
 21 25  1  0     0  0
 22 25  1  0     0  0
 22 30  2  0     0  0
 24 27  2  0     0  0
 24 31  1  0     0  0
 25 29  2  0     0  0
 26 30  1  0     0  0
 26 39  1  0     0  0
 28 32  1  0     0  0
 31 32  2  0     0  0
 33 38  1  0     0  0
 34 40  1  0     0  0
 36 41  1  0     0  0
 37 42  1  0     0  0
 39 43  1  0     0  0
 40 41  1  0     0  0
 42 43  1  0     0  0
M  END
> <standard_type>
pIC50

> <# Confs.>
25

> <canonical_smiles>
FC1=CC=CC(NC(CC2=CN=C(NC3=NC=NC4=CC(CCCCN5[C@@H](OP(O)(O)=O)CCC5)=C(OC)C=C34)S2)=O)=C1

> <standard_relation>
=

> <Publication_ID>
nan

> <predicted_activity_value>
8.09151498112135

> <actual_activity_value>
8.045757490560675

> <Compound>
7

> <standard_units>
nM

> hash
12078469371866150626

$$$$
7_
XXILIB    08252103493D 0   0.00000     0.00000

 43 47  0     1  0            999 V2000
   -7.0859    0.4569    2.5689 S   0  0  0  0  0  2           0  0  0
    6.6127    6.4514    1.4162 P   0  0  2  0  0  5           0  0  0
  -14.2086   -3.0592    2.1221 F   0  0  0  0  0  1           0  0  0
    8.0577    6.6904    1.0877 O   0  0  0  0  0  2           0  0  0
    6.1105    4.9211    1.2661 O   0  0  0  0  0  2           0  0  0
    5.5650    7.2866    0.5092 O   0  0  0  0  0  2           0  0  0
    6.1815    6.8373    2.9259 O   0  0  0  0  0  2           0  0  0
   -0.0206   -0.0086    2.3507 O   0  0  0  0  0  2           0  0  0
  -11.4924    0.7113    1.8240 O   0  0  0  0  0  2           0  0  0
   -6.9561    1.3095    0.1462 N   0  0  0  0  0  3           0  0  0
   -4.8122    0.0907   -1.5006 N   0  0  0  0  0  3           0  0  0
   -2.6438    0.0749   -2.5208 N   0  0  0  0  0  3           0  0  0
   -5.0674    0.0335    0.8730 N   0  0  0  0  0  3           0  0  0
  -10.4687   -0.3998    3.5894 N   0  0  0  0  0  3           0  0  0
    5.7109    2.8930   -0.0000 N   0  0  2  0  0  3           0  0  0
   -6.2835    0.6118    1.0418 C   0  0  0  0  0  4           0  0  0
   -8.3940    1.3972    1.9888 C   0  0  0  0  0  4           0  0  0
  -13.1659   -2.8759    2.9445 C   0  0  0  0  0  4           0  0  0
   -0.7396    0.0000    1.1890 C   0  0  0  0  0  4           0  0  0
   -3.9835    0.1031   -2.5532 C   0  0  0  0  0  4           0  0  0
   -4.2385    0.0299   -0.2728 C   0  0  0  0  0  4           0  0  0
   -2.0729    0.0407   -1.3096 C   0  0  0  0  0  4           0  0  0
   -8.1475    1.7553    0.6808 C   0  0  0  0  0  4           0  0  0
  -11.2979   -1.5346    3.6707 C   0  0  0  0  0  4           0  0  0
   -2.8269    0.0244   -0.1214 C   0  0  0  0  0  4           0  0  0
    0.0000    0.0000    0.0000 C   0  0  0  0  0  4           0  0  0
  -12.3840   -1.7300    2.8106 C   0  0  0  0  0  4           0  0  0
  -12.8861   -3.8315    3.9162 C   0  0  0  0  0  4           0  0  0
   -2.1386    0.0113    1.1207 C   0  0  0  0  0  4           0  0  0
   -0.6840    0.0269   -1.2262 C   0  0  0  0  0  4           0  0  0
  -11.0130   -2.4928    4.6523 C   0  0  0  0  0  4           0  0  0
  -11.8049   -3.6378    4.7724 C   0  0  0  0  0  4           0  0  0
  -10.6131    0.6341    2.6814 C   0  0  0  0  0  4           0  0  0
    6.1998    4.2795    0.0000 C   0  0  2  0  0  4           0  0  0
   -0.7940   -0.0084    3.5481 C   0  0  0  0  0  4           0  0  0
    6.2944    2.2987   -1.2074 C   0  0  0  0  0  4           0  0  0
    4.2509    2.7804    0.0000 C   0  0  0  0  0  4           0  0  0
   -9.5657    1.7117    2.8451 C   0  0  0  0  0  4           0  0  0
    1.5026   -0.0000    0.0000 C   0  0  0  0  0  4           0  0  0
    7.6657    4.1118   -0.3906 C   0  0  0  0  0  4           0  0  0
    7.7201    2.8269   -1.2068 C   0  0  0  0  0  4           0  0  0
    3.6384    1.3728   -0.0000 C   0  0  0  0  0  4           0  0  0
    2.1122    1.4009    0.0000 C   0  0  0  0  0  4           0  0  0
  1 16  1  0     0  0
  1 17  1  0     0  0
  2  4  2  0     0  0
  2  5  1  0     0  0
  2  6  1  0     0  0
  2  7  1  0     0  0
  3 18  1  0     0  0
  5 34  1  0     0  0
  8 19  1  0     0  0
  8 35  1  0     0  0
  9 33  2  0     0  0
 10 16  2  0     0  0
 10 23  1  0     0  0
 11 20  1  0     0  0
 11 21  2  0     0  0
 12 20  2  0     0  0
 12 22  1  0     0  0
 13 16  1  0     0  0
 13 21  1  0     0  0
 14 24  1  0     0  0
 14 33  1  0     0  0
 15 34  1  0     0  0
 15 36  1  0     0  0
 15 37  1  0     0  0
 17 23  2  0     0  0
 17 38  1  0     0  0
 18 27  1  0     0  0
 18 28  2  0     0  0
 19 26  2  0     0  0
 19 29  1  0     0  0
 21 25  1  0     0  0
 22 25  1  0     0  0
 22 30  2  0     0  0
 24 27  2  0     0  0
 24 31  1  0     0  0
 25 29  2  0     0  0
 26 30  1  0     0  0
 26 39  1  0     0  0
 28 32  1  0     0  0
 31 32  2  0     0  0
 33 38  1  0     0  0
 34 40  1  0     0  0
 36 41  1  0     0  0
 37 42  1  0     0  0
 39 43  1  0     0  0
 40 41  1  0     0  0
 42 43  1  0     0  0
M  END
> <standard_type>
pIC50

> <# Confs.>
25

> <canonical_smiles>
FC1=CC=CC(NC(CC2=CN=C(NC3=NC=NC4=CC(CCCCN5[C@@H](OP(O)(O)=O)CCC5)=C(OC)C=C34)S2)=O)=C1

> <standard_relation>
=

> <Publication_ID>
nan

> <predicted_activity_value>
8.09151498112135

> <actual_activity_value>
8.045757490560675

> <Compound>
7

> <standard_units>
nM

> hash
12078469371866150626

$$$$
7_
XXILIB    08252103493D 0   0.00000     0.00000

 43 47  0     1  0            999 V2000
   -7.0859    0.4569    2.5689 S   0  0  0  0  0  2           0  0  0
    6.6127   -6.4514   -1.4162 P   0  0  2  0  0  5           0  0  0
  -15.2028    0.7735   -0.6453 F   0  0  0  0  0  1           0  0  0
    8.0577   -6.6904   -1.0877 O   0  0  0  0  0  2           0  0  0
    6.1105   -4.9211   -1.2661 O   0  0  0  0  0  2           0  0  0
    5.5650   -7.2866   -0.5092 O   0  0  0  0  0  2           0  0  0
    6.1815   -6.8373   -2.9259 O   0  0  0  0  0  2           0  0  0
   -0.0206   -0.0086    2.3507 O   0  0  0  0  0  2           0  0  0
  -11.3494    2.4043    1.3981 O   0  0  0  0  0  2           0  0  0
   -6.9561    1.3095    0.1462 N   0  0  0  0  0  3           0  0  0
   -4.8122    0.0907   -1.5006 N   0  0  0  0  0  3           0  0  0
   -2.6438    0.0749   -2.5208 N   0  0  0  0  0  3           0  0  0
   -5.0674    0.0335    0.8730 N   0  0  0  0  0  3           0  0  0
  -11.3372    0.2147    2.1755 N   0  0  0  0  0  3           0  0  0
    5.7109   -2.8930    0.0000 N   0  0  2  0  0  3           0  0  0
   -6.2835    0.6118    1.0418 C   0  0  0  0  0  4           0  0  0
   -8.3940    1.3972    1.9888 C   0  0  0  0  0  4           0  0  0
  -14.4423   -0.0001    0.1422 C   0  0  0  0  0  4           0  0  0
   -0.7396    0.0000    1.1890 C   0  0  0  0  0  4           0  0  0
   -3.9835    0.1031   -2.5532 C   0  0  0  0  0  4           0  0  0
   -4.2385    0.0299   -0.2728 C   0  0  0  0  0  4           0  0  0
   -2.0729    0.0407   -1.3096 C   0  0  0  0  0  4           0  0  0
   -8.1475    1.7553    0.6808 C   0  0  0  0  0  4           0  0  0
  -12.5050   -0.2664    1.5535 C   0  0  0  0  0  4           0  0  0
   -2.8269    0.0244   -0.1214 C   0  0  0  0  0  4           0  0  0
    0.0000    0.0000    0.0000 C   0  0  0  0  0  4           0  0  0
  -13.2977    0.5380    0.7277 C   0  0  0  0  0  4           0  0  0
  -14.8113   -1.3236    0.3612 C   0  0  0  0  0  4           0  0  0
   -2.1386    0.0113    1.1207 C   0  0  0  0  0  4           0  0  0
   -0.6840    0.0269   -1.2262 C   0  0  0  0  0  4           0  0  0
  -12.8732   -1.5993    1.7790 C   0  0  0  0  0  4           0  0  0
  -14.0224   -2.1249    1.1829 C   0  0  0  0  0  4           0  0  0
  -10.8376    1.4994    2.0565 C   0  0  0  0  0  4           0  0  0
    6.1998   -4.2795    0.0000 C   0  0  2  0  0  4           0  0  0
   -0.7940   -0.0084    3.5481 C   0  0  0  0  0  4           0  0  0
    6.2944   -2.2987    1.2074 C   0  0  0  0  0  4           0  0  0
    4.2509   -2.7804    0.0000 C   0  0  0  0  0  4           0  0  0
   -9.5657    1.7117    2.8451 C   0  0  0  0  0  4           0  0  0
    1.5026   -0.0000   -0.0000 C   0  0  0  0  0  4           0  0  0
    7.6657   -4.1118    0.3906 C   0  0  0  0  0  4           0  0  0
    7.7201   -2.8269    1.2068 C   0  0  0  0  0  4           0  0  0
    3.6384   -1.3728    0.0000 C   0  0  0  0  0  4           0  0  0
    2.1122   -1.4009    0.0000 C   0  0  0  0  0  4           0  0  0
  1 16  1  0     0  0
  1 17  1  0     0  0
  2  4  2  0     0  0
  2  5  1  0     0  0
  2  6  1  0     0  0
  2  7  1  0     0  0
  3 18  1  0     0  0
  5 34  1  0     0  0
  8 19  1  0     0  0
  8 35  1  0     0  0
  9 33  2  0     0  0
 10 16  2  0     0  0
 10 23  1  0     0  0
 11 20  1  0     0  0
 11 21  2  0     0  0
 12 20  2  0     0  0
 12 22  1  0     0  0
 13 16  1  0     0  0
 13 21  1  0     0  0
 14 24  1  0     0  0
 14 33  1  0     0  0
 15 34  1  0     0  0
 15 36  1  0     0  0
 15 37  1  0     0  0
 17 23  2  0     0  0
 17 38  1  0     0  0
 18 27  1  0     0  0
 18 28  2  0     0  0
 19 26  2  0     0  0
 19 29  1  0     0  0
 21 25  1  0     0  0
 22 25  1  0     0  0
 22 30  2  0     0  0
 24 27  2  0     0  0
 24 31  1  0     0  0
 25 29  2  0     0  0
 26 30  1  0     0  0
 26 39  1  0     0  0
 28 32  1  0     0  0
 31 32  2  0     0  0
 33 38  1  0     0  0
 34 40  1  0     0  0
 36 41  1  0     0  0
 37 42  1  0     0  0
 39 43  1  0     0  0
 40 41  1  0     0  0
 42 43  1  0     0  0
M  END
> <standard_type>
pIC50

> <# Confs.>
25

> <canonical_smiles>
FC1=CC=CC(NC(CC2=CN=C(NC3=NC=NC4=CC(CCCCN5[C@@H](OP(O)(O)=O)CCC5)=C(OC)C=C34)S2)=O)=C1

> <standard_relation>
=

> <Publication_ID>
nan

> <predicted_activity_value>
8.09151498112135

> <actual_activity_value>
8.045757490560675

> <Compound>
7

> <standard_units>
nM

> hash
12078469371866150626

$$$$
7_
XXILIB    08252103493D 0   0.00000     0.00000

 43 47  0     1  0            999 V2000
   -7.0859    0.4569    2.5689 S   0  0  0  0  0  2           0  0  0
    4.5241    7.3603   -0.1011 P   0  0  2  0  0  5           0  0  0
   -8.4522    7.4295    6.1476 F   0  0  0  0  0  1           0  0  0
    4.5386    8.2216    1.1281 O   0  0  0  0  0  2           0  0  0
    3.9346    5.8679    0.1039 O   0  0  0  0  0  2           0  0  0
    5.9764    7.1076   -0.7682 O   0  0  0  0  0  2           0  0  0
    3.6496    7.9390   -1.3317 O   0  0  0  0  0  2           0  0  0
   -0.0206   -0.0086    2.3507 O   0  0  0  0  0  2           0  0  0
   -8.7747    3.0167    4.6962 O   0  0  0  0  0  2           0  0  0
   -6.9561    1.3095    0.1462 N   0  0  0  0  0  3           0  0  0
   -4.8122    0.0907   -1.5006 N   0  0  0  0  0  3           0  0  0
   -2.6438    0.0749   -2.5208 N   0  0  0  0  0  3           0  0  0
   -5.0674    0.0335    0.8730 N   0  0  0  0  0  3           0  0  0
   -9.7590    4.1173    2.9021 N   0  0  0  0  0  3           0  0  0
    3.9314    3.6673    1.1204 N   0  0  2  0  0  3           0  0  0
   -6.2835    0.6118    1.0418 C   0  0  0  0  0  4           0  0  0
   -8.3940    1.3972    1.9888 C   0  0  0  0  0  4           0  0  0
   -9.0061    7.1151    4.9680 C   0  0  0  0  0  4           0  0  0
   -0.7396    0.0000    1.1890 C   0  0  0  0  0  4           0  0  0
   -3.9835    0.1031   -2.5532 C   0  0  0  0  0  4           0  0  0
   -4.2385    0.0299   -0.2728 C   0  0  0  0  0  4           0  0  0
   -2.0729    0.0407   -1.3096 C   0  0  0  0  0  4           0  0  0
   -8.1475    1.7553    0.6808 C   0  0  0  0  0  4           0  0  0
   -9.6571    5.4472    3.3524 C   0  0  0  0  0  4           0  0  0
   -2.8269    0.0244   -0.1214 C   0  0  0  0  0  4           0  0  0
    0.0000    0.0000    0.0000 C   0  0  0  0  0  4           0  0  0
   -9.0754    5.7779    4.5811 C   0  0  0  0  0  4           0  0  0
   -9.5025    8.1288    4.1546 C   0  0  0  0  0  4           0  0  0
   -2.1386    0.0113    1.1207 C   0  0  0  0  0  4           0  0  0
   -0.6840    0.0269   -1.2262 C   0  0  0  0  0  4           0  0  0
  -10.1605    6.4641    2.5303 C   0  0  0  0  0  4           0  0  0
  -10.0814    7.8002    2.9312 C   0  0  0  0  0  4           0  0  0
   -9.3136    3.0025    3.5900 C   0  0  0  0  0  4           0  0  0
    4.5646    4.9911    1.0296 C   0  0  2  0  0  4           0  0  0
   -0.7940   -0.0084    3.5481 C   0  0  0  0  0  4           0  0  0
    4.4116    3.1180    2.3929 C   0  0  0  0  0  4           0  0  0
    4.2509    2.7804   -0.0000 C   0  0  0  0  0  4           0  0  0
   -9.5657    1.7117    2.8451 C   0  0  0  0  0  4           0  0  0
    1.5026    0.0000   -0.0000 C   0  0  0  0  0  4           0  0  0
    4.3999    5.5329    2.4469 C   0  0  0  0  0  4           0  0  0
    4.3286    4.3026    3.3422 C   0  0  0  0  0  4           0  0  0
    3.6384    1.3728   -0.0000 C   0  0  0  0  0  4           0  0  0
    2.1122    1.4009    0.0000 C   0  0  0  0  0  4           0  0  0
  1 16  1  0     0  0
  1 17  1  0     0  0
  2  4  2  0     0  0
  2  5  1  0     0  0
  2  6  1  0     0  0
  2  7  1  0     0  0
  3 18  1  0     0  0
  5 34  1  0     0  0
  8 19  1  0     0  0
  8 35  1  0     0  0
  9 33  2  0     0  0
 10 16  2  0     0  0
 10 23  1  0     0  0
 11 20  1  0     0  0
 11 21  2  0     0  0
 12 20  2  0     0  0
 12 22  1  0     0  0
 13 16  1  0     0  0
 13 21  1  0     0  0
 14 24  1  0     0  0
 14 33  1  0     0  0
 15 34  1  0     0  0
 15 36  1  0     0  0
 15 37  1  0     0  0
 17 23  2  0     0  0
 17 38  1  0     0  0
 18 27  1  0     0  0
 18 28  2  0     0  0
 19 26  2  0     0  0
 19 29  1  0     0  0
 21 25  1  0     0  0
 22 25  1  0     0  0
 22 30  2  0     0  0
 24 27  2  0     0  0
 24 31  1  0     0  0
 25 29  2  0     0  0
 26 30  1  0     0  0
 26 39  1  0     0  0
 28 32  1  0     0  0
 31 32  2  0     0  0
 33 38  1  0     0  0
 34 40  1  0     0  0
 36 41  1  0     0  0
 37 42  1  0     0  0
 39 43  1  0     0  0
 40 41  1  0     0  0
 42 43  1  0     0  0
M  END
> <standard_type>
pIC50

> <# Confs.>
25

> <canonical_smiles>
FC1=CC=CC(NC(CC2=CN=C(NC3=NC=NC4=CC(CCCCN5[C@@H](OP(O)(O)=O)CCC5)=C(OC)C=C34)S2)=O)=C1

> <standard_relation>
=

> <Publication_ID>
nan

> <predicted_activity_value>
8.09151498112135

> <actual_activity_value>
8.045757490560675

> <Compound>
7

> <standard_units>
nM

> hash
12078469371866150626

$$$$
7_
XXILIB    08252103493D 0   0.00000     0.00000

 43 47  0     1  0            999 V2000
   -7.0859    0.4569    2.5689 S   0  0  0  0  0  2           0  0  0
    6.6127   -6.4514   -1.4162 P   0  0  2  0  0  5           0  0  0
  -14.2086   -3.0592    2.1221 F   0  0  0  0  0  1           0  0  0
    8.0577   -6.6904   -1.0877 O   0  0  0  0  0  2           0  0  0
    6.1105   -4.9211   -1.2661 O   0  0  0  0  0  2           0  0  0
    5.5650   -7.2866   -0.5092 O   0  0  0  0  0  2           0  0  0
    6.1815   -6.8373   -2.9259 O   0  0  0  0  0  2           0  0  0
   -0.0206   -0.0086    2.3507 O   0  0  0  0  0  2           0  0  0
  -11.4924    0.7113    1.8240 O   0  0  0  0  0  2           0  0  0
   -6.9561    1.3095    0.1462 N   0  0  0  0  0  3           0  0  0
   -4.8122    0.0907   -1.5006 N   0  0  0  0  0  3           0  0  0
   -2.6438    0.0749   -2.5208 N   0  0  0  0  0  3           0  0  0
   -5.0674    0.0335    0.8730 N   0  0  0  0  0  3           0  0  0
  -10.4687   -0.3998    3.5894 N   0  0  0  0  0  3           0  0  0
    5.7109   -2.8930    0.0000 N   0  0  2  0  0  3           0  0  0
   -6.2835    0.6118    1.0418 C   0  0  0  0  0  4           0  0  0
   -8.3940    1.3972    1.9888 C   0  0  0  0  0  4           0  0  0
  -13.1659   -2.8759    2.9445 C   0  0  0  0  0  4           0  0  0
   -0.7396    0.0000    1.1890 C   0  0  0  0  0  4           0  0  0
   -3.9835    0.1031   -2.5532 C   0  0  0  0  0  4           0  0  0
   -4.2385    0.0299   -0.2728 C   0  0  0  0  0  4           0  0  0
   -2.0729    0.0407   -1.3096 C   0  0  0  0  0  4           0  0  0
   -8.1475    1.7553    0.6808 C   0  0  0  0  0  4           0  0  0
  -11.2979   -1.5346    3.6707 C   0  0  0  0  0  4           0  0  0
   -2.8269    0.0244   -0.1214 C   0  0  0  0  0  4           0  0  0
    0.0000    0.0000    0.0000 C   0  0  0  0  0  4           0  0  0
  -12.3840   -1.7300    2.8106 C   0  0  0  0  0  4           0  0  0
  -12.8861   -3.8315    3.9162 C   0  0  0  0  0  4           0  0  0
   -2.1386    0.0113    1.1207 C   0  0  0  0  0  4           0  0  0
   -0.6840    0.0269   -1.2262 C   0  0  0  0  0  4           0  0  0
  -11.0130   -2.4928    4.6523 C   0  0  0  0  0  4           0  0  0
  -11.8049   -3.6378    4.7724 C   0  0  0  0  0  4           0  0  0
  -10.6131    0.6341    2.6814 C   0  0  0  0  0  4           0  0  0
    6.1998   -4.2795    0.0000 C   0  0  2  0  0  4           0  0  0
   -0.7940   -0.0084    3.5481 C   0  0  0  0  0  4           0  0  0
    6.2944   -2.2987    1.2074 C   0  0  0  0  0  4           0  0  0
    4.2509   -2.7804    0.0000 C   0  0  0  0  0  4           0  0  0
   -9.5657    1.7117    2.8451 C   0  0  0  0  0  4           0  0  0
    1.5026   -0.0000   -0.0000 C   0  0  0  0  0  4           0  0  0
    7.6657   -4.1118    0.3906 C   0  0  0  0  0  4           0  0  0
    7.7201   -2.8269    1.2068 C   0  0  0  0  0  4           0  0  0
    3.6384   -1.3728    0.0000 C   0  0  0  0  0  4           0  0  0
    2.1122   -1.4009    0.0000 C   0  0  0  0  0  4           0  0  0
  1 16  1  0     0  0
  1 17  1  0     0  0
  2  4  2  0     0  0
  2  5  1  0     0  0
  2  6  1  0     0  0
  2  7  1  0     0  0
  3 18  1  0     0  0
  5 34  1  0     0  0
  8 19  1  0     0  0
  8 35  1  0     0  0
  9 33  2  0     0  0
 10 16  2  0     0  0
 10 23  1  0     0  0
 11 20  1  0     0  0
 11 21  2  0     0  0
 12 20  2  0     0  0
 12 22  1  0     0  0
 13 16  1  0     0  0
 13 21  1  0     0  0
 14 24  1  0     0  0
 14 33  1  0     0  0
 15 34  1  0     0  0
 15 36  1  0     0  0
 15 37  1  0     0  0
 17 23  2  0     0  0
 17 38  1  0     0  0
 18 27  1  0     0  0
 18 28  2  0     0  0
 19 26  2  0     0  0
 19 29  1  0     0  0
 21 25  1  0     0  0
 22 25  1  0     0  0
 22 30  2  0     0  0
 24 27  2  0     0  0
 24 31  1  0     0  0
 25 29  2  0     0  0
 26 30  1  0     0  0
 26 39  1  0     0  0
 28 32  1  0     0  0
 31 32  2  0     0  0
 33 38  1  0     0  0
 34 40  1  0     0  0
 36 41  1  0     0  0
 37 42  1  0     0  0
 39 43  1  0     0  0
 40 41  1  0     0  0
 42 43  1  0     0  0
M  END
> <standard_type>
pIC50

> <# Confs.>
25

> <canonical_smiles>
FC1=CC=CC(NC(CC2=CN=C(NC3=NC=NC4=CC(CCCCN5[C@@H](OP(O)(O)=O)CCC5)=C(OC)C=C34)S2)=O)=C1

> <standard_relation>
=

> <Publication_ID>
nan

> <predicted_activity_value>
8.09151498112135

> <actual_activity_value>
8.045757490560675

> <Compound>
7

> <standard_units>
nM

> hash
12078469371866150626

$$$$
7_
XXILIB    08252103493D 0   0.00000     0.00000

 43 47  0     1  0            999 V2000
   -7.0859    0.4569    2.5689 S   0  0  0  0  0  2           0  0  0
    6.6127   -6.4514   -1.4162 P   0  0  2  0  0  5           0  0  0
   -8.4522    7.4295    6.1476 F   0  0  0  0  0  1           0  0  0
    8.0577   -6.6904   -1.0877 O   0  0  0  0  0  2           0  0  0
    6.1105   -4.9211   -1.2661 O   0  0  0  0  0  2           0  0  0
    5.5650   -7.2866   -0.5092 O   0  0  0  0  0  2           0  0  0
    6.1815   -6.8373   -2.9259 O   0  0  0  0  0  2           0  0  0
   -0.0206   -0.0086    2.3507 O   0  0  0  0  0  2           0  0  0
   -8.7747    3.0167    4.6962 O   0  0  0  0  0  2           0  0  0
   -6.9561    1.3095    0.1462 N   0  0  0  0  0  3           0  0  0
   -4.8122    0.0907   -1.5006 N   0  0  0  0  0  3           0  0  0
   -2.6438    0.0749   -2.5208 N   0  0  0  0  0  3           0  0  0
   -5.0674    0.0335    0.8730 N   0  0  0  0  0  3           0  0  0
   -9.7590    4.1173    2.9021 N   0  0  0  0  0  3           0  0  0
    5.7109   -2.8930    0.0000 N   0  0  2  0  0  3           0  0  0
   -6.2835    0.6118    1.0418 C   0  0  0  0  0  4           0  0  0
   -8.3940    1.3972    1.9888 C   0  0  0  0  0  4           0  0  0
   -9.0061    7.1151    4.9680 C   0  0  0  0  0  4           0  0  0
   -0.7396    0.0000    1.1890 C   0  0  0  0  0  4           0  0  0
   -3.9835    0.1031   -2.5532 C   0  0  0  0  0  4           0  0  0
   -4.2385    0.0299   -0.2728 C   0  0  0  0  0  4           0  0  0
   -2.0729    0.0407   -1.3096 C   0  0  0  0  0  4           0  0  0
   -8.1475    1.7553    0.6808 C   0  0  0  0  0  4           0  0  0
   -9.6571    5.4472    3.3524 C   0  0  0  0  0  4           0  0  0
   -2.8269    0.0244   -0.1214 C   0  0  0  0  0  4           0  0  0
    0.0000    0.0000    0.0000 C   0  0  0  0  0  4           0  0  0
   -9.0754    5.7779    4.5811 C   0  0  0  0  0  4           0  0  0
   -9.5025    8.1288    4.1546 C   0  0  0  0  0  4           0  0  0
   -2.1386    0.0113    1.1207 C   0  0  0  0  0  4           0  0  0
   -0.6840    0.0269   -1.2262 C   0  0  0  0  0  4           0  0  0
  -10.1605    6.4641    2.5303 C   0  0  0  0  0  4           0  0  0
  -10.0814    7.8002    2.9312 C   0  0  0  0  0  4           0  0  0
   -9.3136    3.0025    3.5900 C   0  0  0  0  0  4           0  0  0
    6.1998   -4.2795    0.0000 C   0  0  2  0  0  4           0  0  0
   -0.7940   -0.0084    3.5481 C   0  0  0  0  0  4           0  0  0
    6.2944   -2.2987    1.2074 C   0  0  0  0  0  4           0  0  0
    4.2509   -2.7804    0.0000 C   0  0  0  0  0  4           0  0  0
   -9.5657    1.7117    2.8451 C   0  0  0  0  0  4           0  0  0
    1.5026   -0.0000   -0.0000 C   0  0  0  0  0  4           0  0  0
    7.6657   -4.1118    0.3906 C   0  0  0  0  0  4           0  0  0
    7.7201   -2.8269    1.2068 C   0  0  0  0  0  4           0  0  0
    3.6384   -1.3728    0.0000 C   0  0  0  0  0  4           0  0  0
    2.1122   -1.4009    0.0000 C   0  0  0  0  0  4           0  0  0
  1 16  1  0     0  0
  1 17  1  0     0  0
  2  4  2  0     0  0
  2  5  1  0     0  0
  2  6  1  0     0  0
  2  7  1  0     0  0
  3 18  1  0     0  0
  5 34  1  0     0  0
  8 19  1  0     0  0
  8 35  1  0     0  0
  9 33  2  0     0  0
 10 16  2  0     0  0
 10 23  1  0     0  0
 11 20  1  0     0  0
 11 21  2  0     0  0
 12 20  2  0     0  0
 12 22  1  0     0  0
 13 16  1  0     0  0
 13 21  1  0     0  0
 14 24  1  0     0  0
 14 33  1  0     0  0
 15 34  1  0     0  0
 15 36  1  0     0  0
 15 37  1  0     0  0
 17 23  2  0     0  0
 17 38  1  0     0  0
 18 27  1  0     0  0
 18 28  2  0     0  0
 19 26  2  0     0  0
 19 29  1  0     0  0
 21 25  1  0     0  0
 22 25  1  0     0  0
 22 30  2  0     0  0
 24 27  2  0     0  0
 24 31  1  0     0  0
 25 29  2  0     0  0
 26 30  1  0     0  0
 26 39  1  0     0  0
 28 32  1  0     0  0
 31 32  2  0     0  0
 33 38  1  0     0  0
 34 40  1  0     0  0
 36 41  1  0     0  0
 37 42  1  0     0  0
 39 43  1  0     0  0
 40 41  1  0     0  0
 42 43  1  0     0  0
M  END
> <standard_type>
pIC50

> <# Confs.>
25

> <canonical_smiles>
FC1=CC=CC(NC(CC2=CN=C(NC3=NC=NC4=CC(CCCCN5[C@@H](OP(O)(O)=O)CCC5)=C(OC)C=C34)S2)=O)=C1

> <standard_relation>
=

> <Publication_ID>
nan

> <predicted_activity_value>
8.09151498112135

> <actual_activity_value>
8.045757490560675

> <Compound>
7

> <standard_units>
nM

> hash
12078469371866150626

$$$$
7_
XXILIB    08252103493D 0   0.00000     0.00000

 43 47  0     1  0            999 V2000
   -7.0859    0.4569    2.5689 S   0  0  0  0  0  2           0  0  0
    6.6127    6.4514    1.4162 P   0  0  2  0  0  5           0  0  0
   -8.4449    7.4312    6.1421 F   0  0  0  0  0  1           0  0  0
    8.0577    6.6904    1.0877 O   0  0  0  0  0  2           0  0  0
    6.1105    4.9211    1.2661 O   0  0  0  0  0  2           0  0  0
    5.5650    7.2866    0.5092 O   0  0  0  0  0  2           0  0  0
    6.1815    6.8373    2.9259 O   0  0  0  0  0  2           0  0  0
   -0.0206   -0.0086    2.3507 O   0  0  0  0  0  2           0  0  0
   -9.6365    4.0936    3.1216 O   0  0  0  0  0  2           0  0  0
   -6.9561    1.3095    0.1462 N   0  0  0  0  0  3           0  0  0
   -4.8122    0.0907   -1.5006 N   0  0  0  0  0  3           0  0  0
   -2.6438    0.0749   -2.5208 N   0  0  0  0  0  3           0  0  0
   -5.0674    0.0335    0.8730 N   0  0  0  0  0  3           0  0  0
   -8.6884    2.8079    4.8088 N   0  0  0  0  0  3           0  0  0
    5.7109    2.8930   -0.0000 N   0  0  2  0  0  3           0  0  0
   -6.2835    0.6118    1.0418 C   0  0  0  0  0  4           0  0  0
   -8.3940    1.3972    1.9888 C   0  0  0  0  0  4           0  0  0
   -8.2053    6.1363    6.3931 C   0  0  0  0  0  4           0  0  0
   -0.7396    0.0000    1.1890 C   0  0  0  0  0  4           0  0  0
   -3.9835    0.1031   -2.5532 C   0  0  0  0  0  4           0  0  0
   -4.2385    0.0299   -0.2728 C   0  0  0  0  0  4           0  0  0
   -2.0729    0.0407   -1.3096 C   0  0  0  0  0  4           0  0  0
   -8.1475    1.7553    0.6808 C   0  0  0  0  0  4           0  0  0
   -8.3315    3.8260    5.7133 C   0  0  0  0  0  4           0  0  0
   -2.8269    0.0244   -0.1214 C   0  0  0  0  0  4           0  0  0
    0.0000    0.0000    0.0000 C   0  0  0  0  0  4           0  0  0
   -8.5845    5.1776    5.4553 C   0  0  0  0  0  4           0  0  0
   -7.5814    5.7753    7.5831 C   0  0  0  0  0  4           0  0  0
   -2.1386    0.0113    1.1207 C   0  0  0  0  0  4           0  0  0
   -0.6840    0.0269   -1.2262 C   0  0  0  0  0  4           0  0  0
   -7.7016    3.4571    6.9092 C   0  0  0  0  0  4           0  0  0
   -7.3296    4.4299    7.8406 C   0  0  0  0  0  4           0  0  0
   -9.3136    3.0025    3.5900 C   0  0  0  0  0  4           0  0  0
    6.1998    4.2795    0.0000 C   0  0  2  0  0  4           0  0  0
   -0.7940   -0.0084    3.5481 C   0  0  0  0  0  4           0  0  0
    6.2944    2.2987   -1.2074 C   0  0  0  0  0  4           0  0  0
    4.2509    2.7804    0.0000 C   0  0  0  0  0  4           0  0  0
   -9.5657    1.7117    2.8451 C   0  0  0  0  0  4           0  0  0
    1.5026   -0.0000    0.0000 C   0  0  0  0  0  4           0  0  0
    7.6657    4.1118   -0.3906 C   0  0  0  0  0  4           0  0  0
    7.7201    2.8269   -1.2068 C   0  0  0  0  0  4           0  0  0
    3.6384    1.3728   -0.0000 C   0  0  0  0  0  4           0  0  0
    2.1122    1.4009    0.0000 C   0  0  0  0  0  4           0  0  0
  1 16  1  0     0  0
  1 17  1  0     0  0
  2  4  2  0     0  0
  2  5  1  0     0  0
  2  6  1  0     0  0
  2  7  1  0     0  0
  3 18  1  0     0  0
  5 34  1  0     0  0
  8 19  1  0     0  0
  8 35  1  0     0  0
  9 33  2  0     0  0
 10 16  2  0     0  0
 10 23  1  0     0  0
 11 20  1  0     0  0
 11 21  2  0     0  0
 12 20  2  0     0  0
 12 22  1  0     0  0
 13 16  1  0     0  0
 13 21  1  0     0  0
 14 24  1  0     0  0
 14 33  1  0     0  0
 15 34  1  0     0  0
 15 36  1  0     0  0
 15 37  1  0     0  0
 17 23  2  0     0  0
 17 38  1  0     0  0
 18 27  1  0     0  0
 18 28  2  0     0  0
 19 26  2  0     0  0
 19 29  1  0     0  0
 21 25  1  0     0  0
 22 25  1  0     0  0
 22 30  2  0     0  0
 24 27  2  0     0  0
 24 31  1  0     0  0
 25 29  2  0     0  0
 26 30  1  0     0  0
 26 39  1  0     0  0
 28 32  1  0     0  0
 31 32  2  0     0  0
 33 38  1  0     0  0
 34 40  1  0     0  0
 36 41  1  0     0  0
 37 42  1  0     0  0
 39 43  1  0     0  0
 40 41  1  0     0  0
 42 43  1  0     0  0
M  END
> <standard_type>
pIC50

> <# Confs.>
25

> <canonical_smiles>
FC1=CC=CC(NC(CC2=CN=C(NC3=NC=NC4=CC(CCCCN5[C@@H](OP(O)(O)=O)CCC5)=C(OC)C=C34)S2)=O)=C1

> <standard_relation>
=

> <Publication_ID>
nan

> <predicted_activity_value>
8.09151498112135

> <actual_activity_value>
8.045757490560675

> <Compound>
7

> <standard_units>
nM

> hash
12078469371866150626

$$$$
7_
XXILIB    08252103493D 0   0.00000     0.00000

 43 47  0     1  0            999 V2000
   -7.0859    0.4569    2.5689 S   0  0  0  0  0  2           0  0  0
    6.6127    6.4514    1.4162 P   0  0  2  0  0  5           0  0  0
  -11.1268    8.1907    2.1937 F   0  0  0  0  0  1           0  0  0
    8.0577    6.6904    1.0877 O   0  0  0  0  0  2           0  0  0
    6.1105    4.9211    1.2661 O   0  0  0  0  0  2           0  0  0
    5.5650    7.2866    0.5092 O   0  0  0  0  0  2           0  0  0
    6.1815    6.8373    2.9259 O   0  0  0  0  0  2           0  0  0
   -0.0206   -0.0086    2.3507 O   0  0  0  0  0  2           0  0  0
  -10.7120    3.5660    1.8437 O   0  0  0  0  0  2           0  0  0
   -6.9561    1.3095    0.1462 N   0  0  0  0  0  3           0  0  0
   -4.8122    0.0907   -1.5006 N   0  0  0  0  0  3           0  0  0
   -2.6438    0.0749   -2.5208 N   0  0  0  0  0  3           0  0  0
   -5.0674    0.0335    0.8730 N   0  0  0  0  0  3           0  0  0
   -9.2537    3.9819    3.6042 N   0  0  0  0  0  3           0  0  0
    5.7109    2.8930   -0.0000 N   0  0  2  0  0  3           0  0  0
   -6.2835    0.6118    1.0418 C   0  0  0  0  0  4           0  0  0
   -8.3940    1.3972    1.9888 C   0  0  0  0  0  4           0  0  0
  -10.3182    7.4931    3.0040 C   0  0  0  0  0  4           0  0  0
   -0.7396    0.0000    1.1890 C   0  0  0  0  0  4           0  0  0
   -3.9835    0.1031   -2.5532 C   0  0  0  0  0  4           0  0  0
   -4.2385    0.0299   -0.2728 C   0  0  0  0  0  4           0  0  0
   -2.0729    0.0407   -1.3096 C   0  0  0  0  0  4           0  0  0
   -8.1475    1.7553    0.6808 C   0  0  0  0  0  4           0  0  0
   -9.3864    5.3802    3.6993 C   0  0  0  0  0  4           0  0  0
   -2.8269    0.0244   -0.1214 C   0  0  0  0  0  4           0  0  0
    0.0000    0.0000    0.0000 C   0  0  0  0  0  4           0  0  0
  -10.2330    6.1097    2.8575 C   0  0  0  0  0  4           0  0  0
   -9.5788    8.1635    3.9734 C   0  0  0  0  0  4           0  0  0
   -2.1386    0.0113    1.1207 C   0  0  0  0  0  4           0  0  0
   -0.6840    0.0269   -1.2262 C   0  0  0  0  0  4           0  0  0
   -8.6380    6.0506    4.6758 C   0  0  0  0  0  4           0  0  0
   -8.7361    7.4377    4.8118 C   0  0  0  0  0  4           0  0  0
   -9.9187    3.1741    2.6989 C   0  0  0  0  0  4           0  0  0
    6.1998    4.2795    0.0000 C   0  0  2  0  0  4           0  0  0
   -0.7940   -0.0084    3.5481 C   0  0  0  0  0  4           0  0  0
    6.2944    2.2987   -1.2074 C   0  0  0  0  0  4           0  0  0
    4.2509    2.7804    0.0000 C   0  0  0  0  0  4           0  0  0
   -9.5657    1.7117    2.8451 C   0  0  0  0  0  4           0  0  0
    1.5026   -0.0000    0.0000 C   0  0  0  0  0  4           0  0  0
    7.6657    4.1118   -0.3906 C   0  0  0  0  0  4           0  0  0
    7.7201    2.8269   -1.2068 C   0  0  0  0  0  4           0  0  0
    3.6384    1.3728   -0.0000 C   0  0  0  0  0  4           0  0  0
    2.1122    1.4009    0.0000 C   0  0  0  0  0  4           0  0  0
  1 16  1  0     0  0
  1 17  1  0     0  0
  2  4  2  0     0  0
  2  5  1  0     0  0
  2  6  1  0     0  0
  2  7  1  0     0  0
  3 18  1  0     0  0
  5 34  1  0     0  0
  8 19  1  0     0  0
  8 35  1  0     0  0
  9 33  2  0     0  0
 10 16  2  0     0  0
 10 23  1  0     0  0
 11 20  1  0     0  0
 11 21  2  0     0  0
 12 20  2  0     0  0
 12 22  1  0     0  0
 13 16  1  0     0  0
 13 21  1  0     0  0
 14 24  1  0     0  0
 14 33  1  0     0  0
 15 34  1  0     0  0
 15 36  1  0     0  0
 15 37  1  0     0  0
 17 23  2  0     0  0
 17 38  1  0     0  0
 18 27  1  0     0  0
 18 28  2  0     0  0
 19 26  2  0     0  0
 19 29  1  0     0  0
 21 25  1  0     0  0
 22 25  1  0     0  0
 22 30  2  0     0  0
 24 27  2  0     0  0
 24 31  1  0     0  0
 25 29  2  0     0  0
 26 30  1  0     0  0
 26 39  1  0     0  0
 28 32  1  0     0  0
 31 32  2  0     0  0
 33 38  1  0     0  0
 34 40  1  0     0  0
 36 41  1  0     0  0
 37 42  1  0     0  0
 39 43  1  0     0  0
 40 41  1  0     0  0
 42 43  1  0     0  0
M  END
> <standard_type>
pIC50

> <# Confs.>
25

> <canonical_smiles>
FC1=CC=CC(NC(CC2=CN=C(NC3=NC=NC4=CC(CCCCN5[C@@H](OP(O)(O)=O)CCC5)=C(OC)C=C34)S2)=O)=C1

> <standard_relation>
=

> <Publication_ID>
nan

> <predicted_activity_value>
8.09151498112135

> <actual_activity_value>
8.045757490560675

> <Compound>
7

> <standard_units>
nM

> hash
12078469371866150626

$$$$
7_
XXILIB    08252103493D 0   0.00000     0.00000

 43 47  0     1  0            999 V2000
   -7.0859    0.4569    2.5689 S   0  0  0  0  0  2           0  0  0
    6.6127    6.4514    1.4162 P   0  0  2  0  0  5           0  0  0
   -8.4522    7.4295    6.1476 F   0  0  0  0  0  1           0  0  0
    8.0577    6.6904    1.0877 O   0  0  0  0  0  2           0  0  0
    6.1105    4.9211    1.2661 O   0  0  0  0  0  2           0  0  0
    5.5650    7.2866    0.5092 O   0  0  0  0  0  2           0  0  0
    6.1815    6.8373    2.9259 O   0  0  0  0  0  2           0  0  0
   -0.0206   -0.0086    2.3507 O   0  0  0  0  0  2           0  0  0
   -8.7747    3.0167    4.6962 O   0  0  0  0  0  2           0  0  0
   -6.9561    1.3095    0.1462 N   0  0  0  0  0  3           0  0  0
   -4.8122    0.0907   -1.5006 N   0  0  0  0  0  3           0  0  0
   -2.6438    0.0749   -2.5208 N   0  0  0  0  0  3           0  0  0
   -5.0674    0.0335    0.8730 N   0  0  0  0  0  3           0  0  0
   -9.7590    4.1173    2.9021 N   0  0  0  0  0  3           0  0  0
    5.7109    2.8930   -0.0000 N   0  0  2  0  0  3           0  0  0
   -6.2835    0.6118    1.0418 C   0  0  0  0  0  4           0  0  0
   -8.3940    1.3972    1.9888 C   0  0  0  0  0  4           0  0  0
   -9.0061    7.1151    4.9680 C   0  0  0  0  0  4           0  0  0
   -0.7396    0.0000    1.1890 C   0  0  0  0  0  4           0  0  0
   -3.9835    0.1031   -2.5532 C   0  0  0  0  0  4           0  0  0
   -4.2385    0.0299   -0.2728 C   0  0  0  0  0  4           0  0  0
   -2.0729    0.0407   -1.3096 C   0  0  0  0  0  4           0  0  0
   -8.1475    1.7553    0.6808 C   0  0  0  0  0  4           0  0  0
   -9.6571    5.4472    3.3524 C   0  0  0  0  0  4           0  0  0
   -2.8269    0.0244   -0.1214 C   0  0  0  0  0  4           0  0  0
    0.0000    0.0000    0.0000 C   0  0  0  0  0  4           0  0  0
   -9.0754    5.7779    4.5811 C   0  0  0  0  0  4           0  0  0
   -9.5025    8.1288    4.1546 C   0  0  0  0  0  4           0  0  0
   -2.1386    0.0113    1.1207 C   0  0  0  0  0  4           0  0  0
   -0.6840    0.0269   -1.2262 C   0  0  0  0  0  4           0  0  0
  -10.1605    6.4641    2.5303 C   0  0  0  0  0  4           0  0  0
  -10.0814    7.8002    2.9312 C   0  0  0  0  0  4           0  0  0
   -9.3136    3.0025    3.5900 C   0  0  0  0  0  4           0  0  0
    6.1998    4.2795    0.0000 C   0  0  2  0  0  4           0  0  0
   -0.7940   -0.0084    3.5481 C   0  0  0  0  0  4           0  0  0
    6.2944    2.2987   -1.2074 C   0  0  0  0  0  4           0  0  0
    4.2509    2.7804    0.0000 C   0  0  0  0  0  4           0  0  0
   -9.5657    1.7117    2.8451 C   0  0  0  0  0  4           0  0  0
    1.5026   -0.0000    0.0000 C   0  0  0  0  0  4           0  0  0
    7.6657    4.1118   -0.3906 C   0  0  0  0  0  4           0  0  0
    7.7201    2.8269   -1.2068 C   0  0  0  0  0  4           0  0  0
    3.6384    1.3728   -0.0000 C   0  0  0  0  0  4           0  0  0
    2.1122    1.4009    0.0000 C   0  0  0  0  0  4           0  0  0
  1 16  1  0     0  0
  1 17  1  0     0  0
  2  4  2  0     0  0
  2  5  1  0     0  0
  2  6  1  0     0  0
  2  7  1  0     0  0
  3 18  1  0     0  0
  5 34  1  0     0  0
  8 19  1  0     0  0
  8 35  1  0     0  0
  9 33  2  0     0  0
 10 16  2  0     0  0
 10 23  1  0     0  0
 11 20  1  0     0  0
 11 21  2  0     0  0
 12 20  2  0     0  0
 12 22  1  0     0  0
 13 16  1  0     0  0
 13 21  1  0     0  0
 14 24  1  0     0  0
 14 33  1  0     0  0
 15 34  1  0     0  0
 15 36  1  0     0  0
 15 37  1  0     0  0
 17 23  2  0     0  0
 17 38  1  0     0  0
 18 27  1  0     0  0
 18 28  2  0     0  0
 19 26  2  0     0  0
 19 29  1  0     0  0
 21 25  1  0     0  0
 22 25  1  0     0  0
 22 30  2  0     0  0
 24 27  2  0     0  0
 24 31  1  0     0  0
 25 29  2  0     0  0
 26 30  1  0     0  0
 26 39  1  0     0  0
 28 32  1  0     0  0
 31 32  2  0     0  0
 33 38  1  0     0  0
 34 40  1  0     0  0
 36 41  1  0     0  0
 37 42  1  0     0  0
 39 43  1  0     0  0
 40 41  1  0     0  0
 42 43  1  0     0  0
M  END
> <standard_type>
pIC50

> <# Confs.>
25

> <canonical_smiles>
FC1=CC=CC(NC(CC2=CN=C(NC3=NC=NC4=CC(CCCCN5[C@@H](OP(O)(O)=O)CCC5)=C(OC)C=C34)S2)=O)=C1

> <standard_relation>
=

> <Publication_ID>
nan

> <predicted_activity_value>
8.09151498112135

> <actual_activity_value>
8.045757490560675

> <Compound>
7

> <standard_units>
nM

> hash
12078469371866150626

$$$$
7_
XXILIB    08252103493D 0   0.00000     0.00000

 43 47  0     1  0            999 V2000
   -7.0859    0.4569    2.5689 S   0  0  0  0  0  2           0  0  0
    6.6127   -6.4514   -1.4162 P   0  0  2  0  0  5           0  0  0
   -8.4449    7.4312    6.1421 F   0  0  0  0  0  1           0  0  0
    8.0577   -6.6904   -1.0877 O   0  0  0  0  0  2           0  0  0
    6.1105   -4.9211   -1.2661 O   0  0  0  0  0  2           0  0  0
    5.5650   -7.2866   -0.5092 O   0  0  0  0  0  2           0  0  0
    6.1815   -6.8373   -2.9259 O   0  0  0  0  0  2           0  0  0
   -0.0206   -0.0086    2.3507 O   0  0  0  0  0  2           0  0  0
   -9.6365    4.0936    3.1216 O   0  0  0  0  0  2           0  0  0
   -6.9561    1.3095    0.1462 N   0  0  0  0  0  3           0  0  0
   -4.8122    0.0907   -1.5006 N   0  0  0  0  0  3           0  0  0
   -2.6438    0.0749   -2.5208 N   0  0  0  0  0  3           0  0  0
   -5.0674    0.0335    0.8730 N   0  0  0  0  0  3           0  0  0
   -8.6884    2.8079    4.8088 N   0  0  0  0  0  3           0  0  0
    5.7109   -2.8930    0.0000 N   0  0  2  0  0  3           0  0  0
   -6.2835    0.6118    1.0418 C   0  0  0  0  0  4           0  0  0
   -8.3940    1.3972    1.9888 C   0  0  0  0  0  4           0  0  0
   -8.2053    6.1363    6.3931 C   0  0  0  0  0  4           0  0  0
   -0.7396    0.0000    1.1890 C   0  0  0  0  0  4           0  0  0
   -3.9835    0.1031   -2.5532 C   0  0  0  0  0  4           0  0  0
   -4.2385    0.0299   -0.2728 C   0  0  0  0  0  4           0  0  0
   -2.0729    0.0407   -1.3096 C   0  0  0  0  0  4           0  0  0
   -8.1475    1.7553    0.6808 C   0  0  0  0  0  4           0  0  0
   -8.3315    3.8260    5.7133 C   0  0  0  0  0  4           0  0  0
   -2.8269    0.0244   -0.1214 C   0  0  0  0  0  4           0  0  0
    0.0000    0.0000    0.0000 C   0  0  0  0  0  4           0  0  0
   -8.5845    5.1776    5.4553 C   0  0  0  0  0  4           0  0  0
   -7.5814    5.7753    7.5831 C   0  0  0  0  0  4           0  0  0
   -2.1386    0.0113    1.1207 C   0  0  0  0  0  4           0  0  0
   -0.6840    0.0269   -1.2262 C   0  0  0  0  0  4           0  0  0
   -7.7016    3.4571    6.9092 C   0  0  0  0  0  4           0  0  0
   -7.3296    4.4299    7.8406 C   0  0  0  0  0  4           0  0  0
   -9.3136    3.0025    3.5900 C   0  0  0  0  0  4           0  0  0
    6.1998   -4.2795    0.0000 C   0  0  2  0  0  4           0  0  0
   -0.7940   -0.0084    3.5481 C   0  0  0  0  0  4           0  0  0
    6.2944   -2.2987    1.2074 C   0  0  0  0  0  4           0  0  0
    4.2509   -2.7804    0.0000 C   0  0  0  0  0  4           0  0  0
   -9.5657    1.7117    2.8451 C   0  0  0  0  0  4           0  0  0
    1.5026   -0.0000   -0.0000 C   0  0  0  0  0  4           0  0  0
    7.6657   -4.1118    0.3906 C   0  0  0  0  0  4           0  0  0
    7.7201   -2.8269    1.2068 C   0  0  0  0  0  4           0  0  0
    3.6384   -1.3728    0.0000 C   0  0  0  0  0  4           0  0  0
    2.1122   -1.4009    0.0000 C   0  0  0  0  0  4           0  0  0
  1 16  1  0     0  0
  1 17  1  0     0  0
  2  4  2  0     0  0
  2  5  1  0     0  0
  2  6  1  0     0  0
  2  7  1  0     0  0
  3 18  1  0     0  0
  5 34  1  0     0  0
  8 19  1  0     0  0
  8 35  1  0     0  0
  9 33  2  0     0  0
 10 16  2  0     0  0
 10 23  1  0     0  0
 11 20  1  0     0  0
 11 21  2  0     0  0
 12 20  2  0     0  0
 12 22  1  0     0  0
 13 16  1  0     0  0
 13 21  1  0     0  0
 14 24  1  0     0  0
 14 33  1  0     0  0
 15 34  1  0     0  0
 15 36  1  0     0  0
 15 37  1  0     0  0
 17 23  2  0     0  0
 17 38  1  0     0  0
 18 27  1  0     0  0
 18 28  2  0     0  0
 19 26  2  0     0  0
 19 29  1  0     0  0
 21 25  1  0     0  0
 22 25  1  0     0  0
 22 30  2  0     0  0
 24 27  2  0     0  0
 24 31  1  0     0  0
 25 29  2  0     0  0
 26 30  1  0     0  0
 26 39  1  0     0  0
 28 32  1  0     0  0
 31 32  2  0     0  0
 33 38  1  0     0  0
 34 40  1  0     0  0
 36 41  1  0     0  0
 37 42  1  0     0  0
 39 43  1  0     0  0
 40 41  1  0     0  0
 42 43  1  0     0  0
M  END
> <standard_type>
pIC50

> <# Confs.>
25

> <canonical_smiles>
FC1=CC=CC(NC(CC2=CN=C(NC3=NC=NC4=CC(CCCCN5[C@@H](OP(O)(O)=O)CCC5)=C(OC)C=C34)S2)=O)=C1

> <standard_relation>
=

> <Publication_ID>
nan

> <predicted_activity_value>
8.09151498112135

> <actual_activity_value>
8.045757490560675

> <Compound>
7

> <standard_units>
nM

> hash
12078469371866150626

$$$$
9_
XXILIB    08252103493D 0   0.00000     0.00000

 44 48  0     1  0            999 V2000
    6.5295    4.0313    6.9766 F   0  0  0  0  0  1           0  0  0
    7.6330    3.3433    8.7192 F   0  0  0  0  0  1           0  0  0
    5.4840    3.6148    8.8373 F   0  0  0  0  0  1           0  0  0
   -2.9808    0.2177   -4.7450 O   0  0  0  0  0  2           0  0  0
   -0.3851    0.1979   -4.9479 O   0  0  0  0  0  2           0  0  0
    5.5061   -2.4252    4.4524 O   0  0  0  0  0  2           0  0  0
  -11.1034    4.6607   -4.2411 O   0  0  0  0  0  2           0  0  0
    3.1052   -1.5044    2.6039 N   0  0  0  0  0  3           0  0  0
    1.9248   -1.1852    2.0528 N   0  0  0  0  0  3           0  0  0
   -0.6508    0.0000    1.1900 N   0  0  0  0  0  3           0  0  0
   -2.7546    0.0492    0.0438 N   0  0  0  0  0  3           0  0  0
    1.4153    0.0000    0.0000 N   0  0  0  0  0  3           0  0  0
    5.8538   -0.1268    4.4139 N   0  0  0  0  0  3           0  0  0
   -7.2329    1.4084   -5.3211 N   0  0  1  0  0  3           0  0  0
   -2.2850    0.1676   -3.5703 C   0  0  0  0  0  4           0  0  0
   -0.8910    0.1559   -3.6794 C   0  0  0  0  0  4           0  0  0
   -1.9895    0.0157    1.1439 C   0  0  0  0  0  4           0  0  0
    2.2541   -0.5347    0.9262 C   0  0  0  0  0  4           0  0  0
    0.0000    0.0000    0.0000 C   0  0  0  0  0  4           0  0  0
   -2.1156    0.0764   -1.1331 C   0  0  0  0  0  4           0  0  0
    4.1890   -1.0766    1.8911 C   0  0  0  0  0  4           0  0  0
    5.9525    0.1234    5.7958 C   0  0  0  0  0  4           0  0  0
   -0.7109    0.0605   -1.2272 C   0  0  0  0  0  4           0  0  0
    6.2762    1.7493    7.5790 C   0  0  0  0  0  4           0  0  0
   -2.8741    0.1264   -2.3003 C   0  0  0  0  0  4           0  0  0
   -0.1162    0.1093   -2.5146 C   0  0  0  0  0  4           0  0  0
    3.6648   -0.4497    0.7835 C   0  0  0  0  0  4           0  0  0
    6.1643    1.4433    6.2159 C   0  0  0  0  0  4           0  0  0
    5.8443   -0.8955    6.7481 C   0  0  0  0  0  4           0  0  0
    6.1548    0.7216    8.5204 C   0  0  0  0  0  4           0  0  0
    5.9449   -0.5939    8.1064 C   0  0  0  0  0  4           0  0  0
    6.4771    3.1613    8.0228 C   0  0  1  0  0  4           0  0  0
    5.6465   -1.3681    3.8378 C   0  0  0  0  0  4           0  0  0
   -4.4030    0.2291   -4.6179 C   0  0  0  0  0  4           0  0  0
   -9.6897    4.8096   -4.2703 C   0  0  0  0  0  4           0  0  0
    1.0376    0.1851   -5.0366 C   0  0  0  0  0  4           0  0  0
   -6.5599    0.3035   -6.0083 C   0  0  0  0  0  4           0  0  0
   -6.8667    2.7110   -5.9011 C   0  0  0  0  0  4           0  0  0
   -8.6909    1.2161   -5.3617 C   0  0  0  0  0  4           0  0  0
    5.5866   -1.3140    2.3286 C   0  0  0  0  0  4           0  0  0
   -9.0543    3.7074   -5.1058 C   0  0  1  0  0  4           0  0  0
   -5.0249    0.2862   -6.0076 C   0  0  0  0  0  4           0  0  0
   -7.5308    3.8618   -5.1416 C   0  0  0  0  0  4           0  0  0
   -9.4175    2.3122   -4.5794 C   0  0  0  0  0  4           0  0  0
  1 32  1  0     0  0
  2 32  1  0     0  0
  3 32  1  0     0  0
  4 15  1  0     0  0
  4 34  1  0     0  0
  5 16  1  0     0  0
  5 36  1  0     0  0
  6 33  2  0     0  0
  7 35  1  0     0  0
  8  9  1  0     0  0
  8 21  1  0     0  0
  9 18  2  0     0  0
 10 17  1  0     0  0
 10 19  2  0     0  0
 11 17  2  0     0  0
 11 20  1  0     0  0
 12 18  1  0     0  0
 12 19  1  0     0  0
 13 22  1  0     0  0
 13 33  1  0     0  0
 14 37  1  0     0  0
 14 38  1  0     0  0
 14 39  1  0     0  0
 15 16  2  0     0  0
 15 25  1  0     0  0
 16 26  1  0     0  0
 18 27  1  0     0  0
 19 23  1  0     0  0
 20 23  1  0     0  0
 20 25  2  0     0  0
 21 27  2  0     0  0
 21 40  1  0     0  0
 22 28  1  0     0  0
 22 29  2  0     0  0
 23 26  2  0     0  0
 24 28  2  0     0  0
 24 30  1  0     0  0
 24 32  1  0     0  0
 29 31  1  0     0  0
 30 31  2  0     0  0
 33 40  1  0     0  0
 34 42  1  0     0  0
 35 41  1  0     0  0
 37 42  1  0     0  0
 38 43  1  0     0  0
 39 44  1  0     0  0
 41 43  1  0     0  0
 41 44  1  0     0  0
M  END
> <standard_type>
pIC50

> <# Confs.>
25

> <canonical_smiles>
O=C(CC1=CC(NC2=NC=NC3=CC(OCCCN4CCC(CO)CC4)=C(OC)C=C23)=NN1)NC5=CC=CC(C(F)(F)F)=C5

> <standard_relation>
=

> <Publication_ID>
nan

> <predicted_activity_value>
7.886056647693163

> <actual_activity_value>
7.886056647693163

> <Compound>
9

> <standard_units>
nM

> hash
2551856031523063432

$$$$
9_
XXILIB    08252103493D 0   0.00000     0.00000

 44 48  0     1  0            999 V2000
    6.5295    4.0313    6.9766 F   0  0  0  0  0  1           0  0  0
    7.6330    3.3433    8.7192 F   0  0  0  0  0  1           0  0  0
    5.4840    3.6148    8.8373 F   0  0  0  0  0  1           0  0  0
   -2.9808    0.2177   -4.7450 O   0  0  0  0  0  2           0  0  0
   -0.3851    0.1979   -4.9479 O   0  0  0  0  0  2           0  0  0
    5.5061   -2.4252    4.4524 O   0  0  0  0  0  2           0  0  0
   -9.2844   -5.5840   -5.1915 O   0  0  0  0  0  2           0  0  0
    3.1052   -1.5044    2.6039 N   0  0  0  0  0  3           0  0  0
    1.9248   -1.1852    2.0528 N   0  0  0  0  0  3           0  0  0
   -0.6508    0.0000    1.1900 N   0  0  0  0  0  3           0  0  0
   -2.7546    0.0492    0.0438 N   0  0  0  0  0  3           0  0  0
    1.4153    0.0000    0.0000 N   0  0  0  0  0  3           0  0  0
    5.8538   -0.1268    4.4139 N   0  0  0  0  0  3           0  0  0
   -7.2580   -0.8327   -5.4020 N   0  0  1  0  0  3           0  0  0
   -2.2850    0.1676   -3.5703 C   0  0  0  0  0  4           0  0  0
   -0.8910    0.1559   -3.6794 C   0  0  0  0  0  4           0  0  0
   -1.9895    0.0157    1.1439 C   0  0  0  0  0  4           0  0  0
    2.2541   -0.5347    0.9262 C   0  0  0  0  0  4           0  0  0
    0.0000    0.0000    0.0000 C   0  0  0  0  0  4           0  0  0
   -2.1156    0.0764   -1.1331 C   0  0  0  0  0  4           0  0  0
    4.1890   -1.0766    1.8911 C   0  0  0  0  0  4           0  0  0
    5.9525    0.1234    5.7958 C   0  0  0  0  0  4           0  0  0
   -0.7109    0.0605   -1.2272 C   0  0  0  0  0  4           0  0  0
    6.2762    1.7493    7.5790 C   0  0  0  0  0  4           0  0  0
   -2.8741    0.1264   -2.3003 C   0  0  0  0  0  4           0  0  0
   -0.1162    0.1093   -2.5146 C   0  0  0  0  0  4           0  0  0
    3.6648   -0.4497    0.7835 C   0  0  0  0  0  4           0  0  0
    6.1643    1.4433    6.2159 C   0  0  0  0  0  4           0  0  0
    5.8443   -0.8955    6.7481 C   0  0  0  0  0  4           0  0  0
    6.1548    0.7216    8.5204 C   0  0  0  0  0  4           0  0  0
    5.9449   -0.5939    8.1064 C   0  0  0  0  0  4           0  0  0
    6.4771    3.1613    8.0228 C   0  0  1  0  0  4           0  0  0
    5.6465   -1.3681    3.8378 C   0  0  0  0  0  4           0  0  0
   -4.4030    0.2291   -4.6179 C   0  0  0  0  0  4           0  0  0
   -9.6764   -4.3358   -4.6349 C   0  0  0  0  0  4           0  0  0
    1.0376    0.1851   -5.0366 C   0  0  0  0  0  4           0  0  0
   -6.5599    0.3035   -6.0083 C   0  0  0  0  0  4           0  0  0
   -8.7197   -0.6742   -5.4779 C   0  0  0  0  0  4           0  0  0
   -6.8399   -2.0866   -6.0480 C   0  0  0  0  0  4           0  0  0
    5.5866   -1.3140    2.3286 C   0  0  0  0  0  4           0  0  0
   -9.0212   -3.1866   -5.3876 C   0  0  1  0  0  4           0  0  0
   -5.0249    0.2862   -6.0076 C   0  0  0  0  0  4           0  0  0
   -9.4393   -1.8383   -4.7930 C   0  0  0  0  0  4           0  0  0
   -7.4905   -3.2995   -5.3796 C   0  0  0  0  0  4           0  0  0
  1 32  1  0     0  0
  2 32  1  0     0  0
  3 32  1  0     0  0
  4 15  1  0     0  0
  4 34  1  0     0  0
  5 16  1  0     0  0
  5 36  1  0     0  0
  6 33  2  0     0  0
  7 35  1  0     0  0
  8  9  1  0     0  0
  8 21  1  0     0  0
  9 18  2  0     0  0
 10 17  1  0     0  0
 10 19  2  0     0  0
 11 17  2  0     0  0
 11 20  1  0     0  0
 12 18  1  0     0  0
 12 19  1  0     0  0
 13 22  1  0     0  0
 13 33  1  0     0  0
 14 37  1  0     0  0
 14 38  1  0     0  0
 14 39  1  0     0  0
 15 16  2  0     0  0
 15 25  1  0     0  0
 16 26  1  0     0  0
 18 27  1  0     0  0
 19 23  1  0     0  0
 20 23  1  0     0  0
 20 25  2  0     0  0
 21 27  2  0     0  0
 21 40  1  0     0  0
 22 28  1  0     0  0
 22 29  2  0     0  0
 23 26  2  0     0  0
 24 28  2  0     0  0
 24 30  1  0     0  0
 24 32  1  0     0  0
 29 31  1  0     0  0
 30 31  2  0     0  0
 33 40  1  0     0  0
 34 42  1  0     0  0
 35 41  1  0     0  0
 37 42  1  0     0  0
 38 43  1  0     0  0
 39 44  1  0     0  0
 41 43  1  0     0  0
 41 44  1  0     0  0
M  END
> <standard_type>
pIC50

> <# Confs.>
25

> <canonical_smiles>
O=C(CC1=CC(NC2=NC=NC3=CC(OCCCN4CCC(CO)CC4)=C(OC)C=C23)=NN1)NC5=CC=CC(C(F)(F)F)=C5

> <standard_relation>
=

> <Publication_ID>
nan

> <predicted_activity_value>
7.886056647693163

> <actual_activity_value>
7.886056647693163

> <Compound>
9

> <standard_units>
nM

> hash
2551856031523063432

$$$$
9_
XXILIB    08252103493D 0   0.00000     0.00000

 44 48  0     1  0            999 V2000
    6.5295    8.0576   -0.0029 F   0  0  0  0  0  1           0  0  0
    7.6330    9.2227    1.4642 F   0  0  0  0  0  1           0  0  0
    5.4840    9.4608    1.2881 F   0  0  0  0  0  1           0  0  0
   -2.9808    0.2177   -4.7450 O   0  0  0  0  0  2           0  0  0
   -0.3851    0.1979   -4.9479 O   0  0  0  0  0  2           0  0  0
    5.5061    2.6433    4.3265 O   0  0  0  0  0  2           0  0  0
  -11.1034    4.6607   -4.2411 O   0  0  0  0  0  2           0  0  0
    3.1052    1.5029    2.6048 N   0  0  0  0  0  3           0  0  0
    1.9248    1.1852    2.0528 N   0  0  0  0  0  3           0  0  0
   -0.6508    0.0000    1.1900 N   0  0  0  0  0  3           0  0  0
   -2.7546    0.0492    0.0438 N   0  0  0  0  0  3           0  0  0
    1.4153    0.0000   -0.0000 N   0  0  0  0  0  3           0  0  0
    5.8538    3.7591    2.3168 N   0  0  0  0  0  3           0  0  0
   -7.2329    1.4084   -5.3211 N   0  0  1  0  0  3           0  0  0
   -2.2850    0.1676   -3.5703 C   0  0  0  0  0  4           0  0  0
   -0.8910    0.1559   -3.6794 C   0  0  0  0  0  4           0  0  0
   -1.9895    0.0157    1.1439 C   0  0  0  0  0  4           0  0  0
    2.2541    0.5347    0.9262 C   0  0  0  0  0  4           0  0  0
    0.0000    0.0000    0.0000 C   0  0  0  0  0  4           0  0  0
   -2.1156    0.0764   -1.1331 C   0  0  0  0  0  4           0  0  0
    4.1890    1.0995    1.8779 C   0  0  0  0  0  4           0  0  0
    5.9525    5.0810    2.7911 C   0  0  0  0  0  4           0  0  0
   -0.7109    0.0605   -1.2272 C   0  0  0  0  0  4           0  0  0
    6.2762    7.4382    2.2746 C   0  0  0  0  0  4           0  0  0
   -2.8741    0.1264   -2.3003 C   0  0  0  0  0  4           0  0  0
   -0.1162    0.1093   -2.5146 C   0  0  0  0  0  4           0  0  0
    3.6648    0.4537    0.7812 C   0  0  0  0  0  4           0  0  0
    6.1643    6.1048    1.8580 C   0  0  0  0  0  4           0  0  0
    5.8443    5.3962    4.1496 C   0  0  0  0  0  4           0  0  0
    6.1548    7.7397    3.6353 C   0  0  0  0  0  4           0  0  0
    5.9449    6.7234    4.5675 C   0  0  0  0  0  4           0  0  0
    6.4771    8.5286    1.2736 C   0  0  1  0  0  4           0  0  0
    5.6465    2.6396    3.1037 C   0  0  0  0  0  4           0  0  0
   -4.4030    0.2291   -4.6179 C   0  0  0  0  0  4           0  0  0
   -9.6897    4.8096   -4.2703 C   0  0  0  0  0  4           0  0  0
    1.0376    0.1851   -5.0366 C   0  0  0  0  0  4           0  0  0
   -6.5599    0.3035   -6.0083 C   0  0  0  0  0  4           0  0  0
   -6.8667    2.7110   -5.9011 C   0  0  0  0  0  4           0  0  0
   -8.6909    1.2161   -5.3617 C   0  0  0  0  0  4           0  0  0
    5.5866    1.3597    2.3022 C   0  0  0  0  0  4           0  0  0
   -9.0543    3.7074   -5.1058 C   0  0  1  0  0  4           0  0  0
   -5.0249    0.2862   -6.0076 C   0  0  0  0  0  4           0  0  0
   -7.5308    3.8618   -5.1416 C   0  0  0  0  0  4           0  0  0
   -9.4175    2.3122   -4.5794 C   0  0  0  0  0  4           0  0  0
  1 32  1  0     0  0
  2 32  1  0     0  0
  3 32  1  0     0  0
  4 15  1  0     0  0
  4 34  1  0     0  0
  5 16  1  0     0  0
  5 36  1  0     0  0
  6 33  2  0     0  0
  7 35  1  0     0  0
  8  9  1  0     0  0
  8 21  1  0     0  0
  9 18  2  0     0  0
 10 17  1  0     0  0
 10 19  2  0     0  0
 11 17  2  0     0  0
 11 20  1  0     0  0
 12 18  1  0     0  0
 12 19  1  0     0  0
 13 22  1  0     0  0
 13 33  1  0     0  0
 14 37  1  0     0  0
 14 38  1  0     0  0
 14 39  1  0     0  0
 15 16  2  0     0  0
 15 25  1  0     0  0
 16 26  1  0     0  0
 18 27  1  0     0  0
 19 23  1  0     0  0
 20 23  1  0     0  0
 20 25  2  0     0  0
 21 27  2  0     0  0
 21 40  1  0     0  0
 22 28  1  0     0  0
 22 29  2  0     0  0
 23 26  2  0     0  0
 24 28  2  0     0  0
 24 30  1  0     0  0
 24 32  1  0     0  0
 29 31  1  0     0  0
 30 31  2  0     0  0
 33 40  1  0     0  0
 34 42  1  0     0  0
 35 41  1  0     0  0
 37 42  1  0     0  0
 38 43  1  0     0  0
 39 44  1  0     0  0
 41 43  1  0     0  0
 41 44  1  0     0  0
M  END
> <standard_type>
pIC50

> <# Confs.>
25

> <canonical_smiles>
O=C(CC1=CC(NC2=NC=NC3=CC(OCCCN4CCC(CO)CC4)=C(OC)C=C23)=NN1)NC5=CC=CC(C(F)(F)F)=C5

> <standard_relation>
=

> <Publication_ID>
nan

> <predicted_activity_value>
7.886056647693163

> <actual_activity_value>
7.886056647693163

> <Compound>
9

> <standard_units>
nM

> hash
2551856031523063432

$$$$
9_
XXILIB    08252103493D 0   0.00000     0.00000

 44 48  0     1  0            999 V2000
    6.9084   -7.9466    0.0208 F   0  0  0  0  0  1           0  0  0
    5.8183   -9.4021    1.2127 F   0  0  0  0  0  1           0  0  0
    7.9384   -9.0944    1.5539 F   0  0  0  0  0  1           0  0  0
   -2.9808    0.2177   -4.7450 O   0  0  0  0  0  2           0  0  0
   -0.3851    0.1979   -4.9479 O   0  0  0  0  0  2           0  0  0
    5.5083   -2.6120    4.3437 O   0  0  0  0  0  2           0  0  0
  -11.1034    4.6607   -4.2411 O   0  0  0  0  0  2           0  0  0
    3.1052   -1.5044    2.6039 N   0  0  0  0  0  3           0  0  0
    1.9248   -1.1852    2.0528 N   0  0  0  0  0  3           0  0  0
   -0.6508    0.0000    1.1900 N   0  0  0  0  0  3           0  0  0
   -2.7546    0.0492    0.0438 N   0  0  0  0  0  3           0  0  0
    1.4153   -0.0000   -0.0000 N   0  0  0  0  0  3           0  0  0
    5.9298   -3.7038    2.3349 N   0  0  0  0  0  3           0  0  0
   -7.2329    1.4084   -5.3211 N   0  0  1  0  0  3           0  0  0
   -2.2850    0.1676   -3.5703 C   0  0  0  0  0  4           0  0  0
   -0.8910    0.1559   -3.6794 C   0  0  0  0  0  4           0  0  0
   -1.9895    0.0157    1.1439 C   0  0  0  0  0  4           0  0  0
    2.2541   -0.5347    0.9262 C   0  0  0  0  0  4           0  0  0
    0.0000    0.0000    0.0000 C   0  0  0  0  0  4           0  0  0
   -2.1156    0.0764   -1.1331 C   0  0  0  0  0  4           0  0  0
    4.1890   -1.0766    1.8911 C   0  0  0  0  0  4           0  0  0
    6.0553   -5.0256    2.8028 C   0  0  0  0  0  4           0  0  0
   -0.7109    0.0605   -1.2272 C   0  0  0  0  0  4           0  0  0
    6.4592   -7.3688    2.2789 C   0  0  0  0  0  4           0  0  0
   -2.8741    0.1264   -2.3003 C   0  0  0  0  0  4           0  0  0
   -0.1162    0.1093   -2.5146 C   0  0  0  0  0  4           0  0  0
    3.6648   -0.4497    0.7835 C   0  0  0  0  0  4           0  0  0
    6.3297   -6.0347    1.8700 C   0  0  0  0  0  4           0  0  0
    5.9176   -5.3546    4.1554 C   0  0  0  0  0  4           0  0  0
    6.3300   -7.6812    3.6365 C   0  0  0  0  0  4           0  0  0
    6.0559   -6.6799    4.5683 C   0  0  0  0  0  4           0  0  0
    6.7763   -8.4371    1.2842 C   0  0  1  0  0  4           0  0  0
    5.6615   -2.5978    3.1226 C   0  0  0  0  0  4           0  0  0
   -4.4030    0.2291   -4.6179 C   0  0  0  0  0  4           0  0  0
   -9.6897    4.8096   -4.2703 C   0  0  0  0  0  4           0  0  0
    1.0376    0.1851   -5.0366 C   0  0  0  0  0  4           0  0  0
   -6.5599    0.3035   -6.0083 C   0  0  0  0  0  4           0  0  0
   -6.8667    2.7110   -5.9011 C   0  0  0  0  0  4           0  0  0
   -8.6909    1.2161   -5.3617 C   0  0  0  0  0  4           0  0  0
    5.5866   -1.3140    2.3286 C   0  0  0  0  0  4           0  0  0
   -9.0543    3.7074   -5.1058 C   0  0  1  0  0  4           0  0  0
   -5.0249    0.2862   -6.0076 C   0  0  0  0  0  4           0  0  0
   -7.5308    3.8618   -5.1416 C   0  0  0  0  0  4           0  0  0
   -9.4175    2.3122   -4.5794 C   0  0  0  0  0  4           0  0  0
  1 32  1  0     0  0
  2 32  1  0     0  0
  3 32  1  0     0  0
  4 15  1  0     0  0
  4 34  1  0     0  0
  5 16  1  0     0  0
  5 36  1  0     0  0
  6 33  2  0     0  0
  7 35  1  0     0  0
  8  9  1  0     0  0
  8 21  1  0     0  0
  9 18  2  0     0  0
 10 17  1  0     0  0
 10 19  2  0     0  0
 11 17  2  0     0  0
 11 20  1  0     0  0
 12 18  1  0     0  0
 12 19  1  0     0  0
 13 22  1  0     0  0
 13 33  1  0     0  0
 14 37  1  0     0  0
 14 38  1  0     0  0
 14 39  1  0     0  0
 15 16  2  0     0  0
 15 25  1  0     0  0
 16 26  1  0     0  0
 18 27  1  0     0  0
 19 23  1  0     0  0
 20 23  1  0     0  0
 20 25  2  0     0  0
 21 27  2  0     0  0
 21 40  1  0     0  0
 22 28  1  0     0  0
 22 29  2  0     0  0
 23 26  2  0     0  0
 24 28  2  0     0  0
 24 30  1  0     0  0
 24 32  1  0     0  0
 29 31  1  0     0  0
 30 31  2  0     0  0
 33 40  1  0     0  0
 34 42  1  0     0  0
 35 41  1  0     0  0
 37 42  1  0     0  0
 38 43  1  0     0  0
 39 44  1  0     0  0
 41 43  1  0     0  0
 41 44  1  0     0  0
M  END
> <standard_type>
pIC50

> <# Confs.>
25

> <canonical_smiles>
O=C(CC1=CC(NC2=NC=NC3=CC(OCCCN4CCC(CO)CC4)=C(OC)C=C23)=NN1)NC5=CC=CC(C(F)(F)F)=C5

> <standard_relation>
=

> <Publication_ID>
nan

> <predicted_activity_value>
7.886056647693163

> <actual_activity_value>
7.886056647693163

> <Compound>
9

> <standard_units>
nM

> hash
2551856031523063432

$$$$
9_
XXILIB    08252103493D 0   0.00000     0.00000

 44 48  0     1  0            999 V2000
    6.9084   -3.9553    6.8924 F   0  0  0  0  0  1           0  0  0
    5.8183   -3.6508    8.7489 F   0  0  0  0  0  1           0  0  0
    7.9384   -3.2015    8.6530 F   0  0  0  0  0  1           0  0  0
   -2.9808    0.2177   -4.7450 O   0  0  0  0  0  2           0  0  0
   -0.3851    0.1979   -4.9479 O   0  0  0  0  0  2           0  0  0
    5.5083    2.4558    4.4340 O   0  0  0  0  0  2           0  0  0
  -11.1034    4.6607   -4.2411 O   0  0  0  0  0  2           0  0  0
    3.1052    1.5029    2.6048 N   0  0  0  0  0  3           0  0  0
    1.9248    1.1852    2.0528 N   0  0  0  0  0  3           0  0  0
   -0.6508    0.0000    1.1900 N   0  0  0  0  0  3           0  0  0
   -2.7546    0.0492    0.0438 N   0  0  0  0  0  3           0  0  0
    1.4153   -0.0000    0.0000 N   0  0  0  0  0  3           0  0  0
    5.9298    0.1702    4.3750 N   0  0  0  0  0  3           0  0  0
   -7.2329    1.4084   -5.3211 N   0  0  1  0  0  3           0  0  0
   -2.2850    0.1676   -3.5703 C   0  0  0  0  0  4           0  0  0
   -0.8910    0.1559   -3.6794 C   0  0  0  0  0  4           0  0  0
   -1.9895    0.0157    1.1439 C   0  0  0  0  0  4           0  0  0
    2.2541    0.5347    0.9262 C   0  0  0  0  0  4           0  0  0
    0.0000    0.0000    0.0000 C   0  0  0  0  0  4           0  0  0
   -2.1156    0.0764   -1.1331 C   0  0  0  0  0  4           0  0  0
    4.1890    1.0995    1.8779 C   0  0  0  0  0  4           0  0  0
    6.0553   -0.0855    5.7537 C   0  0  0  0  0  4           0  0  0
   -0.7109    0.0605   -1.2272 C   0  0  0  0  0  4           0  0  0
    6.4592   -1.7108    7.5210 C   0  0  0  0  0  4           0  0  0
   -2.8741    0.1264   -2.3003 C   0  0  0  0  0  4           0  0  0
   -0.1162    0.1093   -2.5146 C   0  0  0  0  0  4           0  0  0
    3.6648    0.4537    0.7812 C   0  0  0  0  0  4           0  0  0
    6.3297   -1.3979    6.1612 C   0  0  0  0  0  4           0  0  0
    5.9176    0.9214    6.7149 C   0  0  0  0  0  4           0  0  0
    6.3300   -0.6913    8.4704 C   0  0  0  0  0  4           0  0  0
    6.0559    0.6163    8.0691 C   0  0  0  0  0  4           0  0  0
    6.7763   -3.1064    7.9488 C   0  0  1  0  0  4           0  0  0
    5.6615    1.4054    3.8110 C   0  0  0  0  0  4           0  0  0
   -4.4030    0.2291   -4.6179 C   0  0  0  0  0  4           0  0  0
   -9.6897    4.8096   -4.2703 C   0  0  0  0  0  4           0  0  0
    1.0376    0.1851   -5.0366 C   0  0  0  0  0  4           0  0  0
   -6.5599    0.3035   -6.0083 C   0  0  0  0  0  4           0  0  0
   -6.8667    2.7110   -5.9011 C   0  0  0  0  0  4           0  0  0
   -8.6909    1.2161   -5.3617 C   0  0  0  0  0  4           0  0  0
    5.5866    1.3597    2.3022 C   0  0  0  0  0  4           0  0  0
   -9.0543    3.7074   -5.1058 C   0  0  1  0  0  4           0  0  0
   -5.0249    0.2862   -6.0076 C   0  0  0  0  0  4           0  0  0
   -7.5308    3.8618   -5.1416 C   0  0  0  0  0  4           0  0  0
   -9.4175    2.3122   -4.5794 C   0  0  0  0  0  4           0  0  0
  1 32  1  0     0  0
  2 32  1  0     0  0
  3 32  1  0     0  0
  4 15  1  0     0  0
  4 34  1  0     0  0
  5 16  1  0     0  0
  5 36  1  0     0  0
  6 33  2  0     0  0
  7 35  1  0     0  0
  8  9  1  0     0  0
  8 21  1  0     0  0
  9 18  2  0     0  0
 10 17  1  0     0  0
 10 19  2  0     0  0
 11 17  2  0     0  0
 11 20  1  0     0  0
 12 18  1  0     0  0
 12 19  1  0     0  0
 13 22  1  0     0  0
 13 33  1  0     0  0
 14 37  1  0     0  0
 14 38  1  0     0  0
 14 39  1  0     0  0
 15 16  2  0     0  0
 15 25  1  0     0  0
 16 26  1  0     0  0
 18 27  1  0     0  0
 19 23  1  0     0  0
 20 23  1  0     0  0
 20 25  2  0     0  0
 21 27  2  0     0  0
 21 40  1  0     0  0
 22 28  1  0     0  0
 22 29  2  0     0  0
 23 26  2  0     0  0
 24 28  2  0     0  0
 24 30  1  0     0  0
 24 32  1  0     0  0
 29 31  1  0     0  0
 30 31  2  0     0  0
 33 40  1  0     0  0
 34 42  1  0     0  0
 35 41  1  0     0  0
 37 42  1  0     0  0
 38 43  1  0     0  0
 39 44  1  0     0  0
 41 43  1  0     0  0
 41 44  1  0     0  0
M  END
> <standard_type>
pIC50

> <# Confs.>
25

> <canonical_smiles>
O=C(CC1=CC(NC2=NC=NC3=CC(OCCCN4CCC(CO)CC4)=C(OC)C=C23)=NN1)NC5=CC=CC(C(F)(F)F)=C5

> <standard_relation>
=

> <Publication_ID>
nan

> <predicted_activity_value>
7.886056647693163

> <actual_activity_value>
7.886056647693163

> <Compound>
9

> <standard_units>
nM

> hash
2551856031523063432

$$$$
9_
XXILIB    08252103493D 0   0.00000     0.00000

 44 48  0     1  0            999 V2000
    6.5295    4.0313    6.9766 F   0  0  0  0  0  1           0  0  0
    7.6330    3.3433    8.7192 F   0  0  0  0  0  1           0  0  0
    5.4840    3.6148    8.8373 F   0  0  0  0  0  1           0  0  0
   -2.9808    0.2177   -4.7450 O   0  0  0  0  0  2           0  0  0
   -0.3851    0.1979   -4.9479 O   0  0  0  0  0  2           0  0  0
    5.5061   -2.4252    4.4524 O   0  0  0  0  0  2           0  0  0
   -5.4716   -2.2727  -13.2503 O   0  0  0  0  0  2           0  0  0
    3.1052   -1.5044    2.6039 N   0  0  0  0  0  3           0  0  0
    1.9248   -1.1852    2.0528 N   0  0  0  0  0  3           0  0  0
   -0.6508    0.0000    1.1900 N   0  0  0  0  0  3           0  0  0
   -2.7546    0.0492    0.0438 N   0  0  0  0  0  3           0  0  0
    1.4153    0.0000    0.0000 N   0  0  0  0  0  3           0  0  0
    5.8538   -0.1268    4.4139 N   0  0  0  0  0  3           0  0  0
   -5.2095   -0.9271   -8.2658 N   0  0  1  0  0  3           0  0  0
   -2.2850    0.1676   -3.5703 C   0  0  0  0  0  4           0  0  0
   -0.8910    0.1559   -3.6794 C   0  0  0  0  0  4           0  0  0
   -1.9895    0.0157    1.1439 C   0  0  0  0  0  4           0  0  0
    2.2541   -0.5347    0.9262 C   0  0  0  0  0  4           0  0  0
    0.0000   -0.0000    0.0000 C   0  0  0  0  0  4           0  0  0
   -2.1156    0.0764   -1.1331 C   0  0  0  0  0  4           0  0  0
    4.1890   -1.0766    1.8911 C   0  0  0  0  0  4           0  0  0
    5.9525    0.1234    5.7958 C   0  0  0  0  0  4           0  0  0
   -0.7109    0.0605   -1.2272 C   0  0  0  0  0  4           0  0  0
    6.2762    1.7493    7.5790 C   0  0  0  0  0  4           0  0  0
   -2.8741    0.1264   -2.3003 C   0  0  0  0  0  4           0  0  0
   -0.1162    0.1093   -2.5146 C   0  0  0  0  0  4           0  0  0
    3.6648   -0.4497    0.7835 C   0  0  0  0  0  4           0  0  0
    6.1643    1.4433    6.2159 C   0  0  0  0  0  4           0  0  0
    5.8443   -0.8955    6.7481 C   0  0  0  0  0  4           0  0  0
    6.1548    0.7216    8.5204 C   0  0  0  0  0  4           0  0  0
    5.9449   -0.5939    8.1064 C   0  0  0  0  0  4           0  0  0
    6.4771    3.1613    8.0228 C   0  0  1  0  0  4           0  0  0
    5.6465   -1.3681    3.8378 C   0  0  0  0  0  4           0  0  0
   -4.4030    0.2291   -4.6179 C   0  0  0  0  0  4           0  0  0
   -5.7904   -1.0775  -12.5493 C   0  0  0  0  0  4           0  0  0
    1.0376    0.1851   -5.0366 C   0  0  0  0  0  4           0  0  0
   -4.6555   -0.8994   -6.9099 C   0  0  0  0  0  4           0  0  0
   -4.7942    0.2506   -9.0455 C   0  0  0  0  0  4           0  0  0
   -4.8105   -2.1668   -8.9500 C   0  0  0  0  0  4           0  0  0
    5.5866   -1.3140    2.3286 C   0  0  0  0  0  4           0  0  0
   -5.0835   -1.0447  -11.2017 C   0  0  1  0  0  4           0  0  0
   -5.0249    0.2862   -6.0076 C   0  0  0  0  0  4           0  0  0
   -5.4227    0.2407  -10.4408 C   0  0  0  0  0  4           0  0  0
   -5.4435   -2.2625  -10.3397 C   0  0  0  0  0  4           0  0  0
  1 32  1  0     0  0
  2 32  1  0     0  0
  3 32  1  0     0  0
  4 15  1  0     0  0
  4 34  1  0     0  0
  5 16  1  0     0  0
  5 36  1  0     0  0
  6 33  2  0     0  0
  7 35  1  0     0  0
  8  9  1  0     0  0
  8 21  1  0     0  0
  9 18  2  0     0  0
 10 17  1  0     0  0
 10 19  2  0     0  0
 11 17  2  0     0  0
 11 20  1  0     0  0
 12 18  1  0     0  0
 12 19  1  0     0  0
 13 22  1  0     0  0
 13 33  1  0     0  0
 14 37  1  0     0  0
 14 38  1  0     0  0
 14 39  1  0     0  0
 15 16  2  0     0  0
 15 25  1  0     0  0
 16 26  1  0     0  0
 18 27  1  0     0  0
 19 23  1  0     0  0
 20 23  1  0     0  0
 20 25  2  0     0  0
 21 27  2  0     0  0
 21 40  1  0     0  0
 22 28  1  0     0  0
 22 29  2  0     0  0
 23 26  2  0     0  0
 24 28  2  0     0  0
 24 30  1  0     0  0
 24 32  1  0     0  0
 29 31  1  0     0  0
 30 31  2  0     0  0
 33 40  1  0     0  0
 34 42  1  0     0  0
 35 41  1  0     0  0
 37 42  1  0     0  0
 38 43  1  0     0  0
 39 44  1  0     0  0
 41 43  1  0     0  0
 41 44  1  0     0  0
M  END
> <standard_type>
pIC50

> <# Confs.>
25

> <canonical_smiles>
O=C(CC1=CC(NC2=NC=NC3=CC(OCCCN4CCC(CO)CC4)=C(OC)C=C23)=NN1)NC5=CC=CC(C(F)(F)F)=C5

> <standard_relation>
=

> <Publication_ID>
nan

> <predicted_activity_value>
7.886056647693163

> <actual_activity_value>
7.886056647693163

> <Compound>
9

> <standard_units>
nM

> hash
2551856031523063432

$$$$
9_
XXILIB    08252103493D 0   0.00000     0.00000

 44 48  0     1  0            999 V2000
    6.5295    8.0576   -0.0029 F   0  0  0  0  0  1           0  0  0
    7.6330    9.2227    1.4642 F   0  0  0  0  0  1           0  0  0
    5.4840    9.4608    1.2881 F   0  0  0  0  0  1           0  0  0
   -2.9808    0.2177   -4.7450 O   0  0  0  0  0  2           0  0  0
   -0.3851    0.1979   -4.9479 O   0  0  0  0  0  2           0  0  0
    5.5061    2.6433    4.3265 O   0  0  0  0  0  2           0  0  0
   -9.2844   -5.5840   -5.1915 O   0  0  0  0  0  2           0  0  0
    3.1052    1.5029    2.6048 N   0  0  0  0  0  3           0  0  0
    1.9248    1.1852    2.0528 N   0  0  0  0  0  3           0  0  0
   -0.6508    0.0000    1.1900 N   0  0  0  0  0  3           0  0  0
   -2.7546    0.0492    0.0438 N   0  0  0  0  0  3           0  0  0
    1.4153    0.0000   -0.0000 N   0  0  0  0  0  3           0  0  0
    5.8538    3.7591    2.3168 N   0  0  0  0  0  3           0  0  0
   -7.2580   -0.8327   -5.4020 N   0  0  1  0  0  3           0  0  0
   -2.2850    0.1676   -3.5703 C   0  0  0  0  0  4           0  0  0
   -0.8910    0.1559   -3.6794 C   0  0  0  0  0  4           0  0  0
   -1.9895    0.0157    1.1439 C   0  0  0  0  0  4           0  0  0
    2.2541    0.5347    0.9262 C   0  0  0  0  0  4           0  0  0
    0.0000    0.0000    0.0000 C   0  0  0  0  0  4           0  0  0
   -2.1156    0.0764   -1.1331 C   0  0  0  0  0  4           0  0  0
    4.1890    1.0995    1.8779 C   0  0  0  0  0  4           0  0  0
    5.9525    5.0810    2.7911 C   0  0  0  0  0  4           0  0  0
   -0.7109    0.0605   -1.2272 C   0  0  0  0  0  4           0  0  0
    6.2762    7.4382    2.2746 C   0  0  0  0  0  4           0  0  0
   -2.8741    0.1264   -2.3003 C   0  0  0  0  0  4           0  0  0
   -0.1162    0.1093   -2.5146 C   0  0  0  0  0  4           0  0  0
    3.6648    0.4537    0.7812 C   0  0  0  0  0  4           0  0  0
    6.1643    6.1048    1.8580 C   0  0  0  0  0  4           0  0  0
    5.8443    5.3962    4.1496 C   0  0  0  0  0  4           0  0  0
    6.1548    7.7397    3.6353 C   0  0  0  0  0  4           0  0  0
    5.9449    6.7234    4.5675 C   0  0  0  0  0  4           0  0  0
    6.4771    8.5286    1.2736 C   0  0  1  0  0  4           0  0  0
    5.6465    2.6396    3.1037 C   0  0  0  0  0  4           0  0  0
   -4.4030    0.2291   -4.6179 C   0  0  0  0  0  4           0  0  0
   -9.6764   -4.3358   -4.6349 C   0  0  0  0  0  4           0  0  0
    1.0376    0.1851   -5.0366 C   0  0  0  0  0  4           0  0  0
   -6.5599    0.3035   -6.0083 C   0  0  0  0  0  4           0  0  0
   -8.7197   -0.6742   -5.4779 C   0  0  0  0  0  4           0  0  0
   -6.8399   -2.0866   -6.0480 C   0  0  0  0  0  4           0  0  0
    5.5866    1.3597    2.3022 C   0  0  0  0  0  4           0  0  0
   -9.0212   -3.1866   -5.3876 C   0  0  1  0  0  4           0  0  0
   -5.0249    0.2862   -6.0076 C   0  0  0  0  0  4           0  0  0
   -9.4393   -1.8383   -4.7930 C   0  0  0  0  0  4           0  0  0
   -7.4905   -3.2995   -5.3796 C   0  0  0  0  0  4           0  0  0
  1 32  1  0     0  0
  2 32  1  0     0  0
  3 32  1  0     0  0
  4 15  1  0     0  0
  4 34  1  0     0  0
  5 16  1  0     0  0
  5 36  1  0     0  0
  6 33  2  0     0  0
  7 35  1  0     0  0
  8  9  1  0     0  0
  8 21  1  0     0  0
  9 18  2  0     0  0
 10 17  1  0     0  0
 10 19  2  0     0  0
 11 17  2  0     0  0
 11 20  1  0     0  0
 12 18  1  0     0  0
 12 19  1  0     0  0
 13 22  1  0     0  0
 13 33  1  0     0  0
 14 37  1  0     0  0
 14 38  1  0     0  0
 14 39  1  0     0  0
 15 16  2  0     0  0
 15 25  1  0     0  0
 16 26  1  0     0  0
 18 27  1  0     0  0
 19 23  1  0     0  0
 20 23  1  0     0  0
 20 25  2  0     0  0
 21 27  2  0     0  0
 21 40  1  0     0  0
 22 28  1  0     0  0
 22 29  2  0     0  0
 23 26  2  0     0  0
 24 28  2  0     0  0
 24 30  1  0     0  0
 24 32  1  0     0  0
 29 31  1  0     0  0
 30 31  2  0     0  0
 33 40  1  0     0  0
 34 42  1  0     0  0
 35 41  1  0     0  0
 37 42  1  0     0  0
 38 43  1  0     0  0
 39 44  1  0     0  0
 41 43  1  0     0  0
 41 44  1  0     0  0
M  END
> <standard_type>
pIC50

> <# Confs.>
25

> <canonical_smiles>
O=C(CC1=CC(NC2=NC=NC3=CC(OCCCN4CCC(CO)CC4)=C(OC)C=C23)=NN1)NC5=CC=CC(C(F)(F)F)=C5

> <standard_relation>
=

> <Publication_ID>
nan

> <predicted_activity_value>
7.886056647693163

> <actual_activity_value>
7.886056647693163

> <Compound>
9

> <standard_units>
nM

> hash
2551856031523063432

$$$$
9_
XXILIB    08252103493D 0   0.00000     0.00000

 44 48  0     1  0            999 V2000
    6.9084   -3.9553    6.8924 F   0  0  0  0  0  1           0  0  0
    5.8183   -3.6508    8.7489 F   0  0  0  0  0  1           0  0  0
    7.9384   -3.2015    8.6530 F   0  0  0  0  0  1           0  0  0
   -2.9808    0.2177   -4.7450 O   0  0  0  0  0  2           0  0  0
   -0.3851    0.1979   -4.9479 O   0  0  0  0  0  2           0  0  0
    5.5083    2.4558    4.4340 O   0  0  0  0  0  2           0  0  0
   -9.2844   -5.5840   -5.1915 O   0  0  0  0  0  2           0  0  0
    3.1052    1.5029    2.6048 N   0  0  0  0  0  3           0  0  0
    1.9248    1.1852    2.0528 N   0  0  0  0  0  3           0  0  0
   -0.6508    0.0000    1.1900 N   0  0  0  0  0  3           0  0  0
   -2.7546    0.0492    0.0438 N   0  0  0  0  0  3           0  0  0
    1.4153   -0.0000    0.0000 N   0  0  0  0  0  3           0  0  0
    5.9298    0.1702    4.3750 N   0  0  0  0  0  3           0  0  0
   -7.2580   -0.8327   -5.4020 N   0  0  1  0  0  3           0  0  0
   -2.2850    0.1676   -3.5703 C   0  0  0  0  0  4           0  0  0
   -0.8910    0.1559   -3.6794 C   0  0  0  0  0  4           0  0  0
   -1.9895    0.0157    1.1439 C   0  0  0  0  0  4           0  0  0
    2.2541    0.5347    0.9262 C   0  0  0  0  0  4           0  0  0
    0.0000    0.0000    0.0000 C   0  0  0  0  0  4           0  0  0
   -2.1156    0.0764   -1.1331 C   0  0  0  0  0  4           0  0  0
    4.1890    1.0995    1.8779 C   0  0  0  0  0  4           0  0  0
    6.0553   -0.0855    5.7537 C   0  0  0  0  0  4           0  0  0
   -0.7109    0.0605   -1.2272 C   0  0  0  0  0  4           0  0  0
    6.4592   -1.7108    7.5210 C   0  0  0  0  0  4           0  0  0
   -2.8741    0.1264   -2.3003 C   0  0  0  0  0  4           0  0  0
   -0.1162    0.1093   -2.5146 C   0  0  0  0  0  4           0  0  0
    3.6648    0.4537    0.7812 C   0  0  0  0  0  4           0  0  0
    6.3297   -1.3979    6.1612 C   0  0  0  0  0  4           0  0  0
    5.9176    0.9214    6.7149 C   0  0  0  0  0  4           0  0  0
    6.3300   -0.6913    8.4704 C   0  0  0  0  0  4           0  0  0
    6.0559    0.6163    8.0691 C   0  0  0  0  0  4           0  0  0
    6.7763   -3.1064    7.9488 C   0  0  1  0  0  4           0  0  0
    5.6615    1.4054    3.8110 C   0  0  0  0  0  4           0  0  0
   -4.4030    0.2291   -4.6179 C   0  0  0  0  0  4           0  0  0
   -9.6764   -4.3358   -4.6349 C   0  0  0  0  0  4           0  0  0
    1.0376    0.1851   -5.0366 C   0  0  0  0  0  4           0  0  0
   -6.5599    0.3035   -6.0083 C   0  0  0  0  0  4           0  0  0
   -8.7197   -0.6742   -5.4779 C   0  0  0  0  0  4           0  0  0
   -6.8399   -2.0866   -6.0480 C   0  0  0  0  0  4           0  0  0
    5.5866    1.3597    2.3022 C   0  0  0  0  0  4           0  0  0
   -9.0212   -3.1866   -5.3876 C   0  0  1  0  0  4           0  0  0
   -5.0249    0.2862   -6.0076 C   0  0  0  0  0  4           0  0  0
   -9.4393   -1.8383   -4.7930 C   0  0  0  0  0  4           0  0  0
   -7.4905   -3.2995   -5.3796 C   0  0  0  0  0  4           0  0  0
  1 32  1  0     0  0
  2 32  1  0     0  0
  3 32  1  0     0  0
  4 15  1  0     0  0
  4 34  1  0     0  0
  5 16  1  0     0  0
  5 36  1  0     0  0
  6 33  2  0     0  0
  7 35  1  0     0  0
  8  9  1  0     0  0
  8 21  1  0     0  0
  9 18  2  0     0  0
 10 17  1  0     0  0
 10 19  2  0     0  0
 11 17  2  0     0  0
 11 20  1  0     0  0
 12 18  1  0     0  0
 12 19  1  0     0  0
 13 22  1  0     0  0
 13 33  1  0     0  0
 14 37  1  0     0  0
 14 38  1  0     0  0
 14 39  1  0     0  0
 15 16  2  0     0  0
 15 25  1  0     0  0
 16 26  1  0     0  0
 18 27  1  0     0  0
 19 23  1  0     0  0
 20 23  1  0     0  0
 20 25  2  0     0  0
 21 27  2  0     0  0
 21 40  1  0     0  0
 22 28  1  0     0  0
 22 29  2  0     0  0
 23 26  2  0     0  0
 24 28  2  0     0  0
 24 30  1  0     0  0
 24 32  1  0     0  0
 29 31  1  0     0  0
 30 31  2  0     0  0
 33 40  1  0     0  0
 34 42  1  0     0  0
 35 41  1  0     0  0
 37 42  1  0     0  0
 38 43  1  0     0  0
 39 44  1  0     0  0
 41 43  1  0     0  0
 41 44  1  0     0  0
M  END
> <standard_type>
pIC50

> <# Confs.>
25

> <canonical_smiles>
O=C(CC1=CC(NC2=NC=NC3=CC(OCCCN4CCC(CO)CC4)=C(OC)C=C23)=NN1)NC5=CC=CC(C(F)(F)F)=C5

> <standard_relation>
=

> <Publication_ID>
nan

> <predicted_activity_value>
7.886056647693163

> <actual_activity_value>
7.886056647693163

> <Compound>
9

> <standard_units>
nM

> hash
2551856031523063432

$$$$
9_
XXILIB    08252103493D 0   0.00000     0.00000

 44 48  0     1  0            999 V2000
    6.9084   -7.9466    0.0208 F   0  0  0  0  0  1           0  0  0
    5.8183   -9.4021    1.2127 F   0  0  0  0  0  1           0  0  0
    7.9384   -9.0944    1.5539 F   0  0  0  0  0  1           0  0  0
   -2.9808    0.2177   -4.7450 O   0  0  0  0  0  2           0  0  0
   -0.3851    0.1979   -4.9479 O   0  0  0  0  0  2           0  0  0
    5.5083   -2.6120    4.3437 O   0  0  0  0  0  2           0  0  0
   -9.2844   -5.5840   -5.1915 O   0  0  0  0  0  2           0  0  0
    3.1052   -1.5044    2.6039 N   0  0  0  0  0  3           0  0  0
    1.9248   -1.1852    2.0528 N   0  0  0  0  0  3           0  0  0
   -0.6508    0.0000    1.1900 N   0  0  0  0  0  3           0  0  0
   -2.7546    0.0492    0.0438 N   0  0  0  0  0  3           0  0  0
    1.4153   -0.0000   -0.0000 N   0  0  0  0  0  3           0  0  0
    5.9298   -3.7038    2.3349 N   0  0  0  0  0  3           0  0  0
   -7.2580   -0.8327   -5.4020 N   0  0  1  0  0  3           0  0  0
   -2.2850    0.1676   -3.5703 C   0  0  0  0  0  4           0  0  0
   -0.8910    0.1559   -3.6794 C   0  0  0  0  0  4           0  0  0
   -1.9895    0.0157    1.1439 C   0  0  0  0  0  4           0  0  0
    2.2541   -0.5347    0.9262 C   0  0  0  0  0  4           0  0  0
    0.0000    0.0000    0.0000 C   0  0  0  0  0  4           0  0  0
   -2.1156    0.0764   -1.1331 C   0  0  0  0  0  4           0  0  0
    4.1890   -1.0766    1.8911 C   0  0  0  0  0  4           0  0  0
    6.0553   -5.0256    2.8028 C   0  0  0  0  0  4           0  0  0
   -0.7109    0.0605   -1.2272 C   0  0  0  0  0  4           0  0  0
    6.4592   -7.3688    2.2789 C   0  0  0  0  0  4           0  0  0
   -2.8741    0.1264   -2.3003 C   0  0  0  0  0  4           0  0  0
   -0.1162    0.1093   -2.5146 C   0  0  0  0  0  4           0  0  0
    3.6648   -0.4497    0.7835 C   0  0  0  0  0  4           0  0  0
    6.3297   -6.0347    1.8700 C   0  0  0  0  0  4           0  0  0
    5.9176   -5.3546    4.1554 C   0  0  0  0  0  4           0  0  0
    6.3300   -7.6812    3.6365 C   0  0  0  0  0  4           0  0  0
    6.0559   -6.6799    4.5683 C   0  0  0  0  0  4           0  0  0
    6.7763   -8.4371    1.2842 C   0  0  1  0  0  4           0  0  0
    5.6615   -2.5978    3.1226 C   0  0  0  0  0  4           0  0  0
   -4.4030    0.2291   -4.6179 C   0  0  0  0  0  4           0  0  0
   -9.6764   -4.3358   -4.6349 C   0  0  0  0  0  4           0  0  0
    1.0376    0.1851   -5.0366 C   0  0  0  0  0  4           0  0  0
   -6.5599    0.3035   -6.0083 C   0  0  0  0  0  4           0  0  0
   -8.7197   -0.6742   -5.4779 C   0  0  0  0  0  4           0  0  0
   -6.8399   -2.0866   -6.0480 C   0  0  0  0  0  4           0  0  0
    5.5866   -1.3140    2.3286 C   0  0  0  0  0  4           0  0  0
   -9.0212   -3.1866   -5.3876 C   0  0  1  0  0  4           0  0  0
   -5.0249    0.2862   -6.0076 C   0  0  0  0  0  4           0  0  0
   -9.4393   -1.8383   -4.7930 C   0  0  0  0  0  4           0  0  0
   -7.4905   -3.2995   -5.3796 C   0  0  0  0  0  4           0  0  0
  1 32  1  0     0  0
  2 32  1  0     0  0
  3 32  1  0     0  0
  4 15  1  0     0  0
  4 34  1  0     0  0
  5 16  1  0     0  0
  5 36  1  0     0  0
  6 33  2  0     0  0
  7 35  1  0     0  0
  8  9  1  0     0  0
  8 21  1  0     0  0
  9 18  2  0     0  0
 10 17  1  0     0  0
 10 19  2  0     0  0
 11 17  2  0     0  0
 11 20  1  0     0  0
 12 18  1  0     0  0
 12 19  1  0     0  0
 13 22  1  0     0  0
 13 33  1  0     0  0
 14 37  1  0     0  0
 14 38  1  0     0  0
 14 39  1  0     0  0
 15 16  2  0     0  0
 15 25  1  0     0  0
 16 26  1  0     0  0
 18 27  1  0     0  0
 19 23  1  0     0  0
 20 23  1  0     0  0
 20 25  2  0     0  0
 21 27  2  0     0  0
 21 40  1  0     0  0
 22 28  1  0     0  0
 22 29  2  0     0  0
 23 26  2  0     0  0
 24 28  2  0     0  0
 24 30  1  0     0  0
 24 32  1  0     0  0
 29 31  1  0     0  0
 30 31  2  0     0  0
 33 40  1  0     0  0
 34 42  1  0     0  0
 35 41  1  0     0  0
 37 42  1  0     0  0
 38 43  1  0     0  0
 39 44  1  0     0  0
 41 43  1  0     0  0
 41 44  1  0     0  0
M  END
> <standard_type>
pIC50

> <# Confs.>
25

> <canonical_smiles>
O=C(CC1=CC(NC2=NC=NC3=CC(OCCCN4CCC(CO)CC4)=C(OC)C=C23)=NN1)NC5=CC=CC(C(F)(F)F)=C5

> <standard_relation>
=

> <Publication_ID>
nan

> <predicted_activity_value>
7.886056647693163

> <actual_activity_value>
7.886056647693163

> <Compound>
9

> <standard_units>
nM

> hash
2551856031523063432

$$$$
9_
XXILIB    08252103493D 0   0.00000     0.00000

 44 48  0     1  0            999 V2000
    6.5295    4.0313    6.9766 F   0  0  0  0  0  1           0  0  0
    7.6330    3.3433    8.7192 F   0  0  0  0  0  1           0  0  0
    5.4840    3.6148    8.8373 F   0  0  0  0  0  1           0  0  0
   -2.9808    0.2177   -4.7450 O   0  0  0  0  0  2           0  0  0
   -0.3851    0.1979   -4.9479 O   0  0  0  0  0  2           0  0  0
    5.5061   -2.4252    4.4524 O   0  0  0  0  0  2           0  0  0
  -11.1560   -0.2657  -10.6239 O   0  0  0  0  0  2           0  0  0
    3.1052   -1.5044    2.6039 N   0  0  0  0  0  3           0  0  0
    1.9248   -1.1852    2.0528 N   0  0  0  0  0  3           0  0  0
   -0.6508    0.0000    1.1900 N   0  0  0  0  0  3           0  0  0
   -2.7546    0.0492    0.0438 N   0  0  0  0  0  3           0  0  0
    1.4153    0.0000    0.0000 N   0  0  0  0  0  3           0  0  0
    5.8538   -0.1268    4.4139 N   0  0  0  0  0  3           0  0  0
   -7.2438    0.3578   -7.3026 N   0  0  1  0  0  3           0  0  0
   -2.2850    0.1676   -3.5703 C   0  0  0  0  0  4           0  0  0
   -0.8910    0.1559   -3.6794 C   0  0  0  0  0  4           0  0  0
   -1.9895    0.0157    1.1439 C   0  0  0  0  0  4           0  0  0
    2.2541   -0.5347    0.9262 C   0  0  0  0  0  4           0  0  0
    0.0000    0.0000    0.0000 C   0  0  0  0  0  4           0  0  0
   -2.1156    0.0764   -1.1331 C   0  0  0  0  0  4           0  0  0
    4.1890   -1.0766    1.8911 C   0  0  0  0  0  4           0  0  0
    5.9525    0.1234    5.7958 C   0  0  0  0  0  4           0  0  0
   -0.7109    0.0605   -1.2272 C   0  0  0  0  0  4           0  0  0
    6.2762    1.7493    7.5790 C   0  0  0  0  0  4           0  0  0
   -2.8741    0.1264   -2.3003 C   0  0  0  0  0  4           0  0  0
   -0.1162    0.1093   -2.5146 C   0  0  0  0  0  4           0  0  0
    3.6648   -0.4497    0.7835 C   0  0  0  0  0  4           0  0  0
    6.1643    1.4433    6.2159 C   0  0  0  0  0  4           0  0  0
    5.8443   -0.8955    6.7481 C   0  0  0  0  0  4           0  0  0
    6.1548    0.7216    8.5204 C   0  0  0  0  0  4           0  0  0
    5.9449   -0.5939    8.1064 C   0  0  0  0  0  4           0  0  0
    6.4771    3.1613    8.0228 C   0  0  1  0  0  4           0  0  0
    5.6465   -1.3681    3.8378 C   0  0  0  0  0  4           0  0  0
   -4.4030    0.2291   -4.6179 C   0  0  0  0  0  4           0  0  0
   -9.7453   -0.3898  -10.7511 C   0  0  0  0  0  4           0  0  0
    1.0376    0.1851   -5.0366 C   0  0  0  0  0  4           0  0  0
   -6.5599    0.3035   -6.0083 C   0  0  0  0  0  4           0  0  0
   -6.9052   -0.8018   -8.1440 C   0  0  0  0  0  4           0  0  0
   -8.6988    0.4439   -7.1025 C   0  0  0  0  0  4           0  0  0
    5.5866   -1.3140    2.3286 C   0  0  0  0  0  4           0  0  0
   -9.1005   -0.5734   -9.3846 C   0  0  1  0  0  4           0  0  0
   -5.0249    0.2862   -6.0076 C   0  0  0  0  0  4           0  0  0
   -7.5802   -0.7078   -9.5142 C   0  0  0  0  0  4           0  0  0
   -9.4352    0.5861   -8.4363 C   0  0  0  0  0  4           0  0  0
  1 32  1  0     0  0
  2 32  1  0     0  0
  3 32  1  0     0  0
  4 15  1  0     0  0
  4 34  1  0     0  0
  5 16  1  0     0  0
  5 36  1  0     0  0
  6 33  2  0     0  0
  7 35  1  0     0  0
  8  9  1  0     0  0
  8 21  1  0     0  0
  9 18  2  0     0  0
 10 17  1  0     0  0
 10 19  2  0     0  0
 11 17  2  0     0  0
 11 20  1  0     0  0
 12 18  1  0     0  0
 12 19  1  0     0  0
 13 22  1  0     0  0
 13 33  1  0     0  0
 14 37  1  0     0  0
 14 38  1  0     0  0
 14 39  1  0     0  0
 15 16  2  0     0  0
 15 25  1  0     0  0
 16 26  1  0     0  0
 18 27  1  0     0  0
 19 23  1  0     0  0
 20 23  1  0     0  0
 20 25  2  0     0  0
 21 27  2  0     0  0
 21 40  1  0     0  0
 22 28  1  0     0  0
 22 29  2  0     0  0
 23 26  2  0     0  0
 24 28  2  0     0  0
 24 30  1  0     0  0
 24 32  1  0     0  0
 29 31  1  0     0  0
 30 31  2  0     0  0
 33 40  1  0     0  0
 34 42  1  0     0  0
 35 41  1  0     0  0
 37 42  1  0     0  0
 38 43  1  0     0  0
 39 44  1  0     0  0
 41 43  1  0     0  0
 41 44  1  0     0  0
M  END
> <standard_type>
pIC50

> <# Confs.>
25

> <canonical_smiles>
O=C(CC1=CC(NC2=NC=NC3=CC(OCCCN4CCC(CO)CC4)=C(OC)C=C23)=NN1)NC5=CC=CC(C(F)(F)F)=C5

> <standard_relation>
=

> <Publication_ID>
nan

> <predicted_activity_value>
7.886056647693163

> <actual_activity_value>
7.886056647693163

> <Compound>
9

> <standard_units>
nM

> hash
2551856031523063432

$$$$
9_
XXILIB    08252103493D 0   0.00000     0.00000

 44 48  0     1  0            999 V2000
    8.7285    4.7975    0.3681 F   0  0  0  0  0  1           0  0  0
   10.1295    5.4602    1.8930 F   0  0  0  0  0  1           0  0  0
    8.1832    6.4038    1.7286 F   0  0  0  0  0  1           0  0  0
   -2.9808    0.2177   -4.7450 O   0  0  0  0  0  2           0  0  0
   -0.3851    0.1979   -4.9479 O   0  0  0  0  0  2           0  0  0
    5.8999   -0.1746    4.4156 O   0  0  0  0  0  2           0  0  0
  -11.1034    4.6607   -4.2411 O   0  0  0  0  0  2           0  0  0
    3.1052   -1.5044    2.6039 N   0  0  0  0  0  3           0  0  0
    1.9248   -1.1852    2.0528 N   0  0  0  0  0  3           0  0  0
   -0.6508    0.0000    1.1900 N   0  0  0  0  0  3           0  0  0
   -2.7546    0.0492    0.0438 N   0  0  0  0  0  3           0  0  0
    1.4153    0.0000    0.0000 N   0  0  0  0  0  3           0  0  0
    6.6311    0.8584    2.4655 N   0  0  0  0  0  3           0  0  0
   -7.2329    1.4084   -5.3211 N   0  0  1  0  0  3           0  0  0
   -2.2850    0.1676   -3.5703 C   0  0  0  0  0  4           0  0  0
   -0.8910    0.1559   -3.6794 C   0  0  0  0  0  4           0  0  0
   -1.9895    0.0157    1.1439 C   0  0  0  0  0  4           0  0  0
    2.2541   -0.5347    0.9262 C   0  0  0  0  0  4           0  0  0
    0.0000    0.0000    0.0000 C   0  0  0  0  0  4           0  0  0
   -2.1156    0.0764   -1.1331 C   0  0  0  0  0  4           0  0  0
    4.1890   -1.0766    1.8911 C   0  0  0  0  0  4           0  0  0
    7.1528    2.0488    3.0066 C   0  0  0  0  0  4           0  0  0
   -0.7109    0.0605   -1.2272 C   0  0  0  0  0  4           0  0  0
    8.2457    4.1882    2.6109 C   0  0  0  0  0  4           0  0  0
   -2.8741    0.1264   -2.3003 C   0  0  0  0  0  4           0  0  0
   -0.1162    0.1093   -2.5146 C   0  0  0  0  0  4           0  0  0
    3.6648   -0.4497    0.7835 C   0  0  0  0  0  4           0  0  0
    7.7068    2.9885    2.1270 C   0  0  0  0  0  4           0  0  0
    7.1315    2.3166    4.3794 C   0  0  0  0  0  4           0  0  0
    8.2074    4.4472    3.9852 C   0  0  0  0  0  4           0  0  0
    7.6577    3.5141    4.8644 C   0  0  0  0  0  4           0  0  0
    8.8126    5.1975    1.6669 C   0  0  1  0  0  4           0  0  0
    6.0522   -0.1659    3.1943 C   0  0  0  0  0  4           0  0  0
   -4.4030    0.2291   -4.6179 C   0  0  0  0  0  4           0  0  0
   -9.6897    4.8096   -4.2703 C   0  0  0  0  0  4           0  0  0
    1.0376    0.1851   -5.0366 C   0  0  0  0  0  4           0  0  0
   -6.5599    0.3035   -6.0083 C   0  0  0  0  0  4           0  0  0
   -6.8667    2.7110   -5.9011 C   0  0  0  0  0  4           0  0  0
   -8.6909    1.2161   -5.3617 C   0  0  0  0  0  4           0  0  0
    5.5866   -1.3140    2.3286 C   0  0  0  0  0  4           0  0  0
   -9.0543    3.7074   -5.1058 C   0  0  1  0  0  4           0  0  0
   -5.0249    0.2862   -6.0076 C   0  0  0  0  0  4           0  0  0
   -7.5308    3.8618   -5.1416 C   0  0  0  0  0  4           0  0  0
   -9.4175    2.3122   -4.5794 C   0  0  0  0  0  4           0  0  0
  1 32  1  0     0  0
  2 32  1  0     0  0
  3 32  1  0     0  0
  4 15  1  0     0  0
  4 34  1  0     0  0
  5 16  1  0     0  0
  5 36  1  0     0  0
  6 33  2  0     0  0
  7 35  1  0     0  0
  8  9  1  0     0  0
  8 21  1  0     0  0
  9 18  2  0     0  0
 10 17  1  0     0  0
 10 19  2  0     0  0
 11 17  2  0     0  0
 11 20  1  0     0  0
 12 18  1  0     0  0
 12 19  1  0     0  0
 13 22  1  0     0  0
 13 33  1  0     0  0
 14 37  1  0     0  0
 14 38  1  0     0  0
 14 39  1  0     0  0
 15 16  2  0     0  0
 15 25  1  0     0  0
 16 26  1  0     0  0
 18 27  1  0     0  0
 19 23  1  0     0  0
 20 23  1  0     0  0
 20 25  2  0     0  0
 21 27  2  0     0  0
 21 40  1  0     0  0
 22 28  1  0     0  0
 22 29  2  0     0  0
 23 26  2  0     0  0
 24 28  2  0     0  0
 24 30  1  0     0  0
 24 32  1  0     0  0
 29 31  1  0     0  0
 30 31  2  0     0  0
 33 40  1  0     0  0
 34 42  1  0     0  0
 35 41  1  0     0  0
 37 42  1  0     0  0
 38 43  1  0     0  0
 39 44  1  0     0  0
 41 43  1  0     0  0
 41 44  1  0     0  0
M  END
> <standard_type>
pIC50

> <# Confs.>
25

> <canonical_smiles>
O=C(CC1=CC(NC2=NC=NC3=CC(OCCCN4CCC(CO)CC4)=C(OC)C=C23)=NN1)NC5=CC=CC(C(F)(F)F)=C5

> <standard_relation>
=

> <Publication_ID>
nan

> <predicted_activity_value>
7.886056647693163

> <actual_activity_value>
7.886056647693163

> <Compound>
9

> <standard_units>
nM

> hash
2551856031523063432

$$$$
9_
XXILIB    08252103493D 0   0.00000     0.00000

 44 48  0     1  0            999 V2000
    8.7285    2.7175   -3.9707 F   0  0  0  0  0  1           0  0  0
   10.1295    4.3695   -3.7821 F   0  0  0  0  0  1           0  0  0
    8.1832    4.6990   -4.6816 F   0  0  0  0  0  1           0  0  0
   -2.9808    0.2177   -4.7450 O   0  0  0  0  0  2           0  0  0
   -0.3851    0.1979   -4.9479 O   0  0  0  0  0  2           0  0  0
    5.8999    3.7367    2.3591 O   0  0  0  0  0  2           0  0  0
  -11.1034    4.6607   -4.2411 O   0  0  0  0  0  2           0  0  0
    3.1052    1.5029    2.6048 N   0  0  0  0  0  3           0  0  0
    1.9248    1.1852    2.0528 N   0  0  0  0  0  3           0  0  0
   -0.6508    0.0000    1.1900 N   0  0  0  0  0  3           0  0  0
   -2.7546    0.0492    0.0438 N   0  0  0  0  0  3           0  0  0
    1.4153    0.0000   -0.0000 N   0  0  0  0  0  3           0  0  0
    6.6311    2.5644    0.4894 N   0  0  0  0  0  3           0  0  0
   -7.2329    1.4084   -5.3211 N   0  0  1  0  0  3           0  0  0
   -2.2850    0.1676   -3.5703 C   0  0  0  0  0  4           0  0  0
   -0.8910    0.1559   -3.6794 C   0  0  0  0  0  4           0  0  0
   -1.9895    0.0157    1.1439 C   0  0  0  0  0  4           0  0  0
    2.2541    0.5347    0.9262 C   0  0  0  0  0  4           0  0  0
    0.0000    0.0000    0.0000 C   0  0  0  0  0  4           0  0  0
   -2.1156    0.0764   -1.1331 C   0  0  0  0  0  4           0  0  0
    4.1890    1.0995    1.8779 C   0  0  0  0  0  4           0  0  0
    7.1528    3.6282   -0.2711 C   0  0  0  0  0  4           0  0  0
   -0.7109    0.0605   -1.2272 C   0  0  0  0  0  4           0  0  0
    8.2457    4.3553   -2.3216 C   0  0  0  0  0  4           0  0  0
   -2.8741    0.1264   -2.3003 C   0  0  0  0  0  4           0  0  0
   -0.1162    0.1093   -2.5146 C   0  0  0  0  0  4           0  0  0
    3.6648    0.4537    0.7812 C   0  0  0  0  0  4           0  0  0
    7.7068    3.3363   -1.5246 C   0  0  0  0  0  4           0  0  0
    7.1315    4.9509    0.1835 C   0  0  0  0  0  4           0  0  0
    8.2074    5.6749   -1.8588 C   0  0  0  0  0  4           0  0  0
    7.6577    5.9697   -0.6111 C   0  0  0  0  0  4           0  0  0
    8.8126    4.0424   -3.6677 C   0  0  1  0  0  4           0  0  0
    6.0522    2.6834    1.7409 C   0  0  0  0  0  4           0  0  0
   -4.4030    0.2291   -4.6179 C   0  0  0  0  0  4           0  0  0
   -9.6897    4.8096   -4.2703 C   0  0  0  0  0  4           0  0  0
    1.0376    0.1851   -5.0366 C   0  0  0  0  0  4           0  0  0
   -6.5599    0.3035   -6.0083 C   0  0  0  0  0  4           0  0  0
   -6.8667    2.7110   -5.9011 C   0  0  0  0  0  4           0  0  0
   -8.6909    1.2161   -5.3617 C   0  0  0  0  0  4           0  0  0
    5.5866    1.3597    2.3022 C   0  0  0  0  0  4           0  0  0
   -9.0543    3.7074   -5.1058 C   0  0  1  0  0  4           0  0  0
   -5.0249    0.2862   -6.0076 C   0  0  0  0  0  4           0  0  0
   -7.5308    3.8618   -5.1416 C   0  0  0  0  0  4           0  0  0
   -9.4175    2.3122   -4.5794 C   0  0  0  0  0  4           0  0  0
  1 32  1  0     0  0
  2 32  1  0     0  0
  3 32  1  0     0  0
  4 15  1  0     0  0
  4 34  1  0     0  0
  5 16  1  0     0  0
  5 36  1  0     0  0
  6 33  2  0     0  0
  7 35  1  0     0  0
  8  9  1  0     0  0
  8 21  1  0     0  0
  9 18  2  0     0  0
 10 17  1  0     0  0
 10 19  2  0     0  0
 11 17  2  0     0  0
 11 20  1  0     0  0
 12 18  1  0     0  0
 12 19  1  0     0  0
 13 22  1  0     0  0
 13 33  1  0     0  0
 14 37  1  0     0  0
 14 38  1  0     0  0
 14 39  1  0     0  0
 15 16  2  0     0  0
 15 25  1  0     0  0
 16 26  1  0     0  0
 18 27  1  0     0  0
 19 23  1  0     0  0
 20 23  1  0     0  0
 20 25  2  0     0  0
 21 27  2  0     0  0
 21 40  1  0     0  0
 22 28  1  0     0  0
 22 29  2  0     0  0
 23 26  2  0     0  0
 24 28  2  0     0  0
 24 30  1  0     0  0
 24 32  1  0     0  0
 29 31  1  0     0  0
 30 31  2  0     0  0
 33 40  1  0     0  0
 34 42  1  0     0  0
 35 41  1  0     0  0
 37 42  1  0     0  0
 38 43  1  0     0  0
 39 44  1  0     0  0
 41 43  1  0     0  0
 41 44  1  0     0  0
M  END
> <standard_type>
pIC50

> <# Confs.>
25

> <canonical_smiles>
O=C(CC1=CC(NC2=NC=NC3=CC(OCCCN4CCC(CO)CC4)=C(OC)C=C23)=NN1)NC5=CC=CC(C(F)(F)F)=C5

> <standard_relation>
=

> <Publication_ID>
nan

> <predicted_activity_value>
7.886056647693163

> <actual_activity_value>
7.886056647693163

> <Compound>
9

> <standard_units>
nM

> hash
2551856031523063432

$$$$
9_
XXILIB    08252103493D 0   0.00000     0.00000

 44 48  0     1  0            999 V2000
    9.0271   -2.5401   -3.8134 F   0  0  0  0  0  1           0  0  0
    8.4802   -4.4832   -4.6212 F   0  0  0  0  0  1           0  0  0
   10.3793   -4.2302   -3.6037 F   0  0  0  0  0  1           0  0  0
   -2.9808    0.2177   -4.7450 O   0  0  0  0  0  2           0  0  0
   -0.3851    0.1979   -4.9479 O   0  0  0  0  0  2           0  0  0
    5.9427   -3.6852    2.3737 O   0  0  0  0  0  2           0  0  0
  -11.1034    4.6607   -4.2411 O   0  0  0  0  0  2           0  0  0
    3.1052   -1.5044    2.6039 N   0  0  0  0  0  3           0  0  0
    1.9248   -1.1852    2.0528 N   0  0  0  0  0  3           0  0  0
   -0.6508    0.0000    1.1900 N   0  0  0  0  0  3           0  0  0
   -2.7546    0.0492    0.0438 N   0  0  0  0  0  3           0  0  0
    1.4153   -0.0000   -0.0000 N   0  0  0  0  0  3           0  0  0
    6.7009   -2.4830    0.5340 N   0  0  0  0  0  3           0  0  0
   -7.2329    1.4084   -5.3211 N   0  0  1  0  0  3           0  0  0
   -2.2850    0.1676   -3.5703 C   0  0  0  0  0  4           0  0  0
   -0.8910    0.1559   -3.6794 C   0  0  0  0  0  4           0  0  0
   -1.9895    0.0157    1.1439 C   0  0  0  0  0  4           0  0  0
    2.2541   -0.5347    0.9262 C   0  0  0  0  0  4           0  0  0
    0.0000    0.0000    0.0000 C   0  0  0  0  0  4           0  0  0
   -2.1156    0.0764   -1.1331 C   0  0  0  0  0  4           0  0  0
    4.1890   -1.0766    1.8911 C   0  0  0  0  0  4           0  0  0
    7.2568   -3.5310   -0.2241 C   0  0  0  0  0  4           0  0  0
   -0.7109    0.0605   -1.2272 C   0  0  0  0  0  4           0  0  0
    8.4128   -4.2201   -2.2531 C   0  0  0  0  0  4           0  0  0
   -2.8741    0.1264   -2.3003 C   0  0  0  0  0  4           0  0  0
   -0.1162    0.1093   -2.5146 C   0  0  0  0  0  4           0  0  0
    3.6648   -0.4497    0.7835 C   0  0  0  0  0  4           0  0  0
    7.8492   -3.2160   -1.4543 C   0  0  0  0  0  4           0  0  0
    7.2360   -4.8599    0.2123 C   0  0  0  0  0  4           0  0  0
    8.3946   -5.5431   -1.7986 C   0  0  0  0  0  4           0  0  0
    7.8051   -5.8612   -0.5750 C   0  0  0  0  0  4           0  0  0
    9.0651   -3.8758   -3.5520 C   0  0  1  0  0  4           0  0  0
    6.0822   -2.6253    1.7639 C   0  0  0  0  0  4           0  0  0
   -4.4030    0.2291   -4.6179 C   0  0  0  0  0  4           0  0  0
   -9.6897    4.8096   -4.2703 C   0  0  0  0  0  4           0  0  0
    1.0376    0.1851   -5.0366 C   0  0  0  0  0  4           0  0  0
   -6.5599    0.3035   -6.0083 C   0  0  0  0  0  4           0  0  0
   -6.8667    2.7110   -5.9011 C   0  0  0  0  0  4           0  0  0
   -8.6909    1.2161   -5.3617 C   0  0  0  0  0  4           0  0  0
    5.5866   -1.3140    2.3286 C   0  0  0  0  0  4           0  0  0
   -9.0543    3.7074   -5.1058 C   0  0  1  0  0  4           0  0  0
   -5.0249    0.2862   -6.0076 C   0  0  0  0  0  4           0  0  0
   -7.5308    3.8618   -5.1416 C   0  0  0  0  0  4           0  0  0
   -9.4175    2.3122   -4.5794 C   0  0  0  0  0  4           0  0  0
  1 32  1  0     0  0
  2 32  1  0     0  0
  3 32  1  0     0  0
  4 15  1  0     0  0
  4 34  1  0     0  0
  5 16  1  0     0  0
  5 36  1  0     0  0
  6 33  2  0     0  0
  7 35  1  0     0  0
  8  9  1  0     0  0
  8 21  1  0     0  0
  9 18  2  0     0  0
 10 17  1  0     0  0
 10 19  2  0     0  0
 11 17  2  0     0  0
 11 20  1  0     0  0
 12 18  1  0     0  0
 12 19  1  0     0  0
 13 22  1  0     0  0
 13 33  1  0     0  0
 14 37  1  0     0  0
 14 38  1  0     0  0
 14 39  1  0     0  0
 15 16  2  0     0  0
 15 25  1  0     0  0
 16 26  1  0     0  0
 18 27  1  0     0  0
 19 23  1  0     0  0
 20 23  1  0     0  0
 20 25  2  0     0  0
 21 27  2  0     0  0
 21 40  1  0     0  0
 22 28  1  0     0  0
 22 29  2  0     0  0
 23 26  2  0     0  0
 24 28  2  0     0  0
 24 30  1  0     0  0
 24 32  1  0     0  0
 29 31  1  0     0  0
 30 31  2  0     0  0
 33 40  1  0     0  0
 34 42  1  0     0  0
 35 41  1  0     0  0
 37 42  1  0     0  0
 38 43  1  0     0  0
 39 44  1  0     0  0
 41 43  1  0     0  0
 41 44  1  0     0  0
M  END
> <standard_type>
pIC50

> <# Confs.>
25

> <canonical_smiles>
O=C(CC1=CC(NC2=NC=NC3=CC(OCCCN4CCC(CO)CC4)=C(OC)C=C23)=NN1)NC5=CC=CC(C(F)(F)F)=C5

> <standard_relation>
=

> <Publication_ID>
nan

> <predicted_activity_value>
7.886056647693163

> <actual_activity_value>
7.886056647693163

> <Compound>
9

> <standard_units>
nM

> hash
2551856031523063432

$$$$
9_
XXILIB    08252103493D 0   0.00000     0.00000

 44 48  0     1  0            999 V2000
    6.5295    4.0313    6.9766 F   0  0  0  0  0  1           0  0  0
    7.6330    3.3433    8.7192 F   0  0  0  0  0  1           0  0  0
    5.4840    3.6148    8.8373 F   0  0  0  0  0  1           0  0  0
   -2.9808    0.2177   -4.7450 O   0  0  0  0  0  2           0  0  0
   -0.3851    0.1979   -4.9479 O   0  0  0  0  0  2           0  0  0
    5.5061   -2.4252    4.4524 O   0  0  0  0  0  2           0  0  0
   -6.6432    4.1494  -12.4621 O   0  0  0  0  0  2           0  0  0
    3.1052   -1.5044    2.6039 N   0  0  0  0  0  3           0  0  0
    1.9248   -1.1852    2.0528 N   0  0  0  0  0  3           0  0  0
   -0.6508    0.0000    1.1900 N   0  0  0  0  0  3           0  0  0
   -2.7546    0.0492    0.0438 N   0  0  0  0  0  3           0  0  0
    1.4153    0.0000    0.0000 N   0  0  0  0  0  3           0  0  0
    5.8538   -0.1268    4.4139 N   0  0  0  0  0  3           0  0  0
   -5.1804    1.6628   -8.1724 N   0  0  1  0  0  3           0  0  0
   -2.2850    0.1676   -3.5703 C   0  0  0  0  0  4           0  0  0
   -0.8910    0.1559   -3.6794 C   0  0  0  0  0  4           0  0  0
   -1.9895    0.0157    1.1439 C   0  0  0  0  0  4           0  0  0
    2.2541   -0.5347    0.9262 C   0  0  0  0  0  4           0  0  0
    0.0000    0.0000    0.0000 C   0  0  0  0  0  4           0  0  0
   -2.1156    0.0764   -1.1331 C   0  0  0  0  0  4           0  0  0
    4.1890   -1.0766    1.8911 C   0  0  0  0  0  4           0  0  0
    5.9525    0.1234    5.7958 C   0  0  0  0  0  4           0  0  0
   -0.7109    0.0605   -1.2272 C   0  0  0  0  0  4           0  0  0
    6.2762    1.7493    7.5790 C   0  0  0  0  0  4           0  0  0
   -2.8741    0.1264   -2.3003 C   0  0  0  0  0  4           0  0  0
   -0.1162    0.1093   -2.5146 C   0  0  0  0  0  4           0  0  0
    3.6648   -0.4497    0.7835 C   0  0  0  0  0  4           0  0  0
    6.1643    1.4433    6.2159 C   0  0  0  0  0  4           0  0  0
    5.8443   -0.8955    6.7481 C   0  0  0  0  0  4           0  0  0
    6.1548    0.7216    8.5204 C   0  0  0  0  0  4           0  0  0
    5.9449   -0.5939    8.1064 C   0  0  0  0  0  4           0  0  0
    6.4771    3.1613    8.0228 C   0  0  1  0  0  4           0  0  0
    5.6465   -1.3681    3.8378 C   0  0  0  0  0  4           0  0  0
   -4.4030    0.2291   -4.6179 C   0  0  0  0  0  4           0  0  0
   -7.1662    3.0261  -11.7649 C   0  0  0  0  0  4           0  0  0
    1.0376    0.1851   -5.0366 C   0  0  0  0  0  4           0  0  0
   -4.6283    1.5251   -6.8225 C   0  0  0  0  0  4           0  0  0
   -6.6517    1.7106   -8.1542 C   0  0  0  0  0  4           0  0  0
   -4.6324    2.8631   -8.8230 C   0  0  0  0  0  4           0  0  0
    5.5866   -1.3140    2.3286 C   0  0  0  0  0  4           0  0  0
   -6.6608    3.0064  -10.3294 C   0  0  1  0  0  4           0  0  0
   -5.0249    0.2862   -6.0076 C   0  0  0  0  0  4           0  0  0
   -7.2206    1.7983   -9.5722 C   0  0  0  0  0  4           0  0  0
   -5.1274    2.9878  -10.2655 C   0  0  0  0  0  4           0  0  0
  1 32  1  0     0  0
  2 32  1  0     0  0
  3 32  1  0     0  0
  4 15  1  0     0  0
  4 34  1  0     0  0
  5 16  1  0     0  0
  5 36  1  0     0  0
  6 33  2  0     0  0
  7 35  1  0     0  0
  8  9  1  0     0  0
  8 21  1  0     0  0
  9 18  2  0     0  0
 10 17  1  0     0  0
 10 19  2  0     0  0
 11 17  2  0     0  0
 11 20  1  0     0  0
 12 18  1  0     0  0
 12 19  1  0     0  0
 13 22  1  0     0  0
 13 33  1  0     0  0
 14 37  1  0     0  0
 14 38  1  0     0  0
 14 39  1  0     0  0
 15 16  2  0     0  0
 15 25  1  0     0  0
 16 26  1  0     0  0
 18 27  1  0     0  0
 19 23  1  0     0  0
 20 23  1  0     0  0
 20 25  2  0     0  0
 21 27  2  0     0  0
 21 40  1  0     0  0
 22 28  1  0     0  0
 22 29  2  0     0  0
 23 26  2  0     0  0
 24 28  2  0     0  0
 24 30  1  0     0  0
 24 32  1  0     0  0
 29 31  1  0     0  0
 30 31  2  0     0  0
 33 40  1  0     0  0
 34 42  1  0     0  0
 35 41  1  0     0  0
 37 42  1  0     0  0
 38 43  1  0     0  0
 39 44  1  0     0  0
 41 43  1  0     0  0
 41 44  1  0     0  0
M  END
> <standard_type>
pIC50

> <# Confs.>
25

> <canonical_smiles>
O=C(CC1=CC(NC2=NC=NC3=CC(OCCCN4CCC(CO)CC4)=C(OC)C=C23)=NN1)NC5=CC=CC(C(F)(F)F)=C5

> <standard_relation>
=

> <Publication_ID>
nan

> <predicted_activity_value>
7.886056647693163

> <actual_activity_value>
7.886056647693163

> <Compound>
9

> <standard_units>
nM

> hash
2551856031523063432

$$$$
9_
XXILIB    08252103493D 0   0.00000     0.00000

 44 48  0     1  0            999 V2000
    6.5295    4.0313    6.9766 F   0  0  0  0  0  1           0  0  0
    7.6330    3.3433    8.7192 F   0  0  0  0  0  1           0  0  0
    5.4840    3.6148    8.8373 F   0  0  0  0  0  1           0  0  0
   -2.9808    0.2177   -4.7450 O   0  0  0  0  0  2           0  0  0
   -0.3851    0.1979   -4.9479 O   0  0  0  0  0  2           0  0  0
    5.5061   -2.4252    4.4524 O   0  0  0  0  0  2           0  0  0
   -6.1316   -7.2689   -6.9562 O   0  0  0  0  0  2           0  0  0
    3.1052   -1.5044    2.6039 N   0  0  0  0  0  3           0  0  0
    1.9248   -1.1852    2.0528 N   0  0  0  0  0  3           0  0  0
   -0.6508    0.0000    1.1900 N   0  0  0  0  0  3           0  0  0
   -2.7546    0.0492    0.0438 N   0  0  0  0  0  3           0  0  0
    1.4153    0.0000    0.0000 N   0  0  0  0  0  3           0  0  0
    5.8538   -0.1268    4.4139 N   0  0  0  0  0  3           0  0  0
   -5.0239   -2.2438   -6.4598 N   0  0  1  0  0  3           0  0  0
   -2.2850    0.1676   -3.5703 C   0  0  0  0  0  4           0  0  0
   -0.8910    0.1559   -3.6794 C   0  0  0  0  0  4           0  0  0
   -1.9895    0.0157    1.1439 C   0  0  0  0  0  4           0  0  0
    2.2541   -0.5347    0.9262 C   0  0  0  0  0  4           0  0  0
    0.0000   -0.0000    0.0000 C   0  0  0  0  0  4           0  0  0
   -2.1156    0.0764   -1.1331 C   0  0  0  0  0  4           0  0  0
    4.1890   -1.0766    1.8911 C   0  0  0  0  0  4           0  0  0
    5.9525    0.1234    5.7958 C   0  0  0  0  0  4           0  0  0
   -0.7109    0.0605   -1.2272 C   0  0  0  0  0  4           0  0  0
    6.2762    1.7493    7.5790 C   0  0  0  0  0  4           0  0  0
   -2.8741    0.1264   -2.3003 C   0  0  0  0  0  4           0  0  0
   -0.1162    0.1093   -2.5146 C   0  0  0  0  0  4           0  0  0
    3.6648   -0.4497    0.7835 C   0  0  0  0  0  4           0  0  0
    6.1643    1.4433    6.2159 C   0  0  0  0  0  4           0  0  0
    5.8443   -0.8955    6.7481 C   0  0  0  0  0  4           0  0  0
    6.1548    0.7216    8.5204 C   0  0  0  0  0  4           0  0  0
    5.9449   -0.5939    8.1064 C   0  0  0  0  0  4           0  0  0
    6.4771    3.1613    8.0228 C   0  0  1  0  0  4           0  0  0
    5.6465   -1.3681    3.8378 C   0  0  0  0  0  4           0  0  0
   -4.4030    0.2291   -4.6179 C   0  0  0  0  0  4           0  0  0
   -6.6215   -6.2469   -6.0976 C   0  0  0  0  0  4           0  0  0
    1.0376    0.1851   -5.0366 C   0  0  0  0  0  4           0  0  0
   -4.6555   -0.8994   -6.9099 C   0  0  0  0  0  4           0  0  0
   -6.4795   -2.3768   -6.2834 C   0  0  0  0  0  4           0  0  0
   -4.5244   -3.2499   -7.4098 C   0  0  0  0  0  4           0  0  0
    5.5866   -1.3140    2.3286 C   0  0  0  0  0  4           0  0  0
   -6.3240   -4.8726   -6.6802 C   0  0  1  0  0  4           0  0  0
   -5.0249    0.2862   -6.0076 C   0  0  0  0  0  4           0  0  0
   -6.8492   -3.7665   -5.7600 C   0  0  0  0  0  4           0  0  0
   -4.8221   -4.6696   -6.9228 C   0  0  0  0  0  4           0  0  0
  1 32  1  0     0  0
  2 32  1  0     0  0
  3 32  1  0     0  0
  4 15  1  0     0  0
  4 34  1  0     0  0
  5 16  1  0     0  0
  5 36  1  0     0  0
  6 33  2  0     0  0
  7 35  1  0     0  0
  8  9  1  0     0  0
  8 21  1  0     0  0
  9 18  2  0     0  0
 10 17  1  0     0  0
 10 19  2  0     0  0
 11 17  2  0     0  0
 11 20  1  0     0  0
 12 18  1  0     0  0
 12 19  1  0     0  0
 13 22  1  0     0  0
 13 33  1  0     0  0
 14 37  1  0     0  0
 14 38  1  0     0  0
 14 39  1  0     0  0
 15 16  2  0     0  0
 15 25  1  0     0  0
 16 26  1  0     0  0
 18 27  1  0     0  0
 19 23  1  0     0  0
 20 23  1  0     0  0
 20 25  2  0     0  0
 21 27  2  0     0  0
 21 40  1  0     0  0
 22 28  1  0     0  0
 22 29  2  0     0  0
 23 26  2  0     0  0
 24 28  2  0     0  0
 24 30  1  0     0  0
 24 32  1  0     0  0
 29 31  1  0     0  0
 30 31  2  0     0  0
 33 40  1  0     0  0
 34 42  1  0     0  0
 35 41  1  0     0  0
 37 42  1  0     0  0
 38 43  1  0     0  0
 39 44  1  0     0  0
 41 43  1  0     0  0
 41 44  1  0     0  0
M  END
> <standard_type>
pIC50

> <# Confs.>
25

> <canonical_smiles>
O=C(CC1=CC(NC2=NC=NC3=CC(OCCCN4CCC(CO)CC4)=C(OC)C=C23)=NN1)NC5=CC=CC(C(F)(F)F)=C5

> <standard_relation>
=

> <Publication_ID>
nan

> <predicted_activity_value>
7.886056647693163

> <actual_activity_value>
7.886056647693163

> <Compound>
9

> <standard_units>
nM

> hash
2551856031523063432

$$$$
9_
XXILIB    08252103493D 0   0.00000     0.00000

 44 48  0     1  0            999 V2000
    8.7285    2.7175   -3.9707 F   0  0  0  0  0  1           0  0  0
   10.1295    4.3695   -3.7821 F   0  0  0  0  0  1           0  0  0
    8.1832    4.6990   -4.6816 F   0  0  0  0  0  1           0  0  0
   -2.9808    0.2177   -4.7450 O   0  0  0  0  0  2           0  0  0
   -0.3851    0.1979   -4.9479 O   0  0  0  0  0  2           0  0  0
    5.8999    3.7367    2.3591 O   0  0  0  0  0  2           0  0  0
   -9.2844   -5.5840   -5.1915 O   0  0  0  0  0  2           0  0  0
    3.1052    1.5029    2.6048 N   0  0  0  0  0  3           0  0  0
    1.9248    1.1852    2.0528 N   0  0  0  0  0  3           0  0  0
   -0.6508    0.0000    1.1900 N   0  0  0  0  0  3           0  0  0
   -2.7546    0.0492    0.0438 N   0  0  0  0  0  3           0  0  0
    1.4153    0.0000   -0.0000 N   0  0  0  0  0  3           0  0  0
    6.6311    2.5644    0.4894 N   0  0  0  0  0  3           0  0  0
   -7.2580   -0.8327   -5.4020 N   0  0  1  0  0  3           0  0  0
   -2.2850    0.1676   -3.5703 C   0  0  0  0  0  4           0  0  0
   -0.8910    0.1559   -3.6794 C   0  0  0  0  0  4           0  0  0
   -1.9895    0.0157    1.1439 C   0  0  0  0  0  4           0  0  0
    2.2541    0.5347    0.9262 C   0  0  0  0  0  4           0  0  0
    0.0000    0.0000    0.0000 C   0  0  0  0  0  4           0  0  0
   -2.1156    0.0764   -1.1331 C   0  0  0  0  0  4           0  0  0
    4.1890    1.0995    1.8779 C   0  0  0  0  0  4           0  0  0
    7.1528    3.6282   -0.2711 C   0  0  0  0  0  4           0  0  0
   -0.7109    0.0605   -1.2272 C   0  0  0  0  0  4           0  0  0
    8.2457    4.3553   -2.3216 C   0  0  0  0  0  4           0  0  0
   -2.8741    0.1264   -2.3003 C   0  0  0  0  0  4           0  0  0
   -0.1162    0.1093   -2.5146 C   0  0  0  0  0  4           0  0  0
    3.6648    0.4537    0.7812 C   0  0  0  0  0  4           0  0  0
    7.7068    3.3363   -1.5246 C   0  0  0  0  0  4           0  0  0
    7.1315    4.9509    0.1835 C   0  0  0  0  0  4           0  0  0
    8.2074    5.6749   -1.8588 C   0  0  0  0  0  4           0  0  0
    7.6577    5.9697   -0.6111 C   0  0  0  0  0  4           0  0  0
    8.8126    4.0424   -3.6677 C   0  0  1  0  0  4           0  0  0
    6.0522    2.6834    1.7409 C   0  0  0  0  0  4           0  0  0
   -4.4030    0.2291   -4.6179 C   0  0  0  0  0  4           0  0  0
   -9.6764   -4.3358   -4.6349 C   0  0  0  0  0  4           0  0  0
    1.0376    0.1851   -5.0366 C   0  0  0  0  0  4           0  0  0
   -6.5599    0.3035   -6.0083 C   0  0  0  0  0  4           0  0  0
   -8.7197   -0.6742   -5.4779 C   0  0  0  0  0  4           0  0  0
   -6.8399   -2.0866   -6.0480 C   0  0  0  0  0  4           0  0  0
    5.5866    1.3597    2.3022 C   0  0  0  0  0  4           0  0  0
   -9.0212   -3.1866   -5.3876 C   0  0  1  0  0  4           0  0  0
   -5.0249    0.2862   -6.0076 C   0  0  0  0  0  4           0  0  0
   -9.4393   -1.8383   -4.7930 C   0  0  0  0  0  4           0  0  0
   -7.4905   -3.2995   -5.3796 C   0  0  0  0  0  4           0  0  0
  1 32  1  0     0  0
  2 32  1  0     0  0
  3 32  1  0     0  0
  4 15  1  0     0  0
  4 34  1  0     0  0
  5 16  1  0     0  0
  5 36  1  0     0  0
  6 33  2  0     0  0
  7 35  1  0     0  0
  8  9  1  0     0  0
  8 21  1  0     0  0
  9 18  2  0     0  0
 10 17  1  0     0  0
 10 19  2  0     0  0
 11 17  2  0     0  0
 11 20  1  0     0  0
 12 18  1  0     0  0
 12 19  1  0     0  0
 13 22  1  0     0  0
 13 33  1  0     0  0
 14 37  1  0     0  0
 14 38  1  0     0  0
 14 39  1  0     0  0
 15 16  2  0     0  0
 15 25  1  0     0  0
 16 26  1  0     0  0
 18 27  1  0     0  0
 19 23  1  0     0  0
 20 23  1  0     0  0
 20 25  2  0     0  0
 21 27  2  0     0  0
 21 40  1  0     0  0
 22 28  1  0     0  0
 22 29  2  0     0  0
 23 26  2  0     0  0
 24 28  2  0     0  0
 24 30  1  0     0  0
 24 32  1  0     0  0
 29 31  1  0     0  0
 30 31  2  0     0  0
 33 40  1  0     0  0
 34 42  1  0     0  0
 35 41  1  0     0  0
 37 42  1  0     0  0
 38 43  1  0     0  0
 39 44  1  0     0  0
 41 43  1  0     0  0
 41 44  1  0     0  0
M  END
> <standard_type>
pIC50

> <# Confs.>
25

> <canonical_smiles>
O=C(CC1=CC(NC2=NC=NC3=CC(OCCCN4CCC(CO)CC4)=C(OC)C=C23)=NN1)NC5=CC=CC(C(F)(F)F)=C5

> <standard_relation>
=

> <Publication_ID>
nan

> <predicted_activity_value>
7.886056647693163

> <actual_activity_value>
7.886056647693163

> <Compound>
9

> <standard_units>
nM

> hash
2551856031523063432

$$$$
9_
XXILIB    08252103493D 0   0.00000     0.00000

 44 48  0     1  0            999 V2000
    8.7285    4.7975    0.3681 F   0  0  0  0  0  1           0  0  0
   10.1295    5.4602    1.8930 F   0  0  0  0  0  1           0  0  0
    8.1832    6.4038    1.7286 F   0  0  0  0  0  1           0  0  0
   -2.9808    0.2177   -4.7450 O   0  0  0  0  0  2           0  0  0
   -0.3851    0.1979   -4.9479 O   0  0  0  0  0  2           0  0  0
    5.8999   -0.1746    4.4156 O   0  0  0  0  0  2           0  0  0
   -9.2844   -5.5840   -5.1915 O   0  0  0  0  0  2           0  0  0
    3.1052   -1.5044    2.6039 N   0  0  0  0  0  3           0  0  0
    1.9248   -1.1852    2.0528 N   0  0  0  0  0  3           0  0  0
   -0.6508    0.0000    1.1900 N   0  0  0  0  0  3           0  0  0
   -2.7546    0.0492    0.0438 N   0  0  0  0  0  3           0  0  0
    1.4153    0.0000    0.0000 N   0  0  0  0  0  3           0  0  0
    6.6311    0.8584    2.4655 N   0  0  0  0  0  3           0  0  0
   -7.2580   -0.8327   -5.4020 N   0  0  1  0  0  3           0  0  0
   -2.2850    0.1676   -3.5703 C   0  0  0  0  0  4           0  0  0
   -0.8910    0.1559   -3.6794 C   0  0  0  0  0  4           0  0  0
   -1.9895    0.0157    1.1439 C   0  0  0  0  0  4           0  0  0
    2.2541   -0.5347    0.9262 C   0  0  0  0  0  4           0  0  0
    0.0000    0.0000    0.0000 C   0  0  0  0  0  4           0  0  0
   -2.1156    0.0764   -1.1331 C   0  0  0  0  0  4           0  0  0
    4.1890   -1.0766    1.8911 C   0  0  0  0  0  4           0  0  0
    7.1528    2.0488    3.0066 C   0  0  0  0  0  4           0  0  0
   -0.7109    0.0605   -1.2272 C   0  0  0  0  0  4           0  0  0
    8.2457    4.1882    2.6109 C   0  0  0  0  0  4           0  0  0
   -2.8741    0.1264   -2.3003 C   0  0  0  0  0  4           0  0  0
   -0.1162    0.1093   -2.5146 C   0  0  0  0  0  4           0  0  0
    3.6648   -0.4497    0.7835 C   0  0  0  0  0  4           0  0  0
    7.7068    2.9885    2.1270 C   0  0  0  0  0  4           0  0  0
    7.1315    2.3166    4.3794 C   0  0  0  0  0  4           0  0  0
    8.2074    4.4472    3.9852 C   0  0  0  0  0  4           0  0  0
    7.6577    3.5141    4.8644 C   0  0  0  0  0  4           0  0  0
    8.8126    5.1975    1.6669 C   0  0  1  0  0  4           0  0  0
    6.0522   -0.1659    3.1943 C   0  0  0  0  0  4           0  0  0
   -4.4030    0.2291   -4.6179 C   0  0  0  0  0  4           0  0  0
   -9.6764   -4.3358   -4.6349 C   0  0  0  0  0  4           0  0  0
    1.0376    0.1851   -5.0366 C   0  0  0  0  0  4           0  0  0
   -6.5599    0.3035   -6.0083 C   0  0  0  0  0  4           0  0  0
   -8.7197   -0.6742   -5.4779 C   0  0  0  0  0  4           0  0  0
   -6.8399   -2.0866   -6.0480 C   0  0  0  0  0  4           0  0  0
    5.5866   -1.3140    2.3286 C   0  0  0  0  0  4           0  0  0
   -9.0212   -3.1866   -5.3876 C   0  0  1  0  0  4           0  0  0
   -5.0249    0.2862   -6.0076 C   0  0  0  0  0  4           0  0  0
   -9.4393   -1.8383   -4.7930 C   0  0  0  0  0  4           0  0  0
   -7.4905   -3.2995   -5.3796 C   0  0  0  0  0  4           0  0  0
  1 32  1  0     0  0
  2 32  1  0     0  0
  3 32  1  0     0  0
  4 15  1  0     0  0
  4 34  1  0     0  0
  5 16  1  0     0  0
  5 36  1  0     0  0
  6 33  2  0     0  0
  7 35  1  0     0  0
  8  9  1  0     0  0
  8 21  1  0     0  0
  9 18  2  0     0  0
 10 17  1  0     0  0
 10 19  2  0     0  0
 11 17  2  0     0  0
 11 20  1  0     0  0
 12 18  1  0     0  0
 12 19  1  0     0  0
 13 22  1  0     0  0
 13 33  1  0     0  0
 14 37  1  0     0  0
 14 38  1  0     0  0
 14 39  1  0     0  0
 15 16  2  0     0  0
 15 25  1  0     0  0
 16 26  1  0     0  0
 18 27  1  0     0  0
 19 23  1  0     0  0
 20 23  1  0     0  0
 20 25  2  0     0  0
 21 27  2  0     0  0
 21 40  1  0     0  0
 22 28  1  0     0  0
 22 29  2  0     0  0
 23 26  2  0     0  0
 24 28  2  0     0  0
 24 30  1  0     0  0
 24 32  1  0     0  0
 29 31  1  0     0  0
 30 31  2  0     0  0
 33 40  1  0     0  0
 34 42  1  0     0  0
 35 41  1  0     0  0
 37 42  1  0     0  0
 38 43  1  0     0  0
 39 44  1  0     0  0
 41 43  1  0     0  0
 41 44  1  0     0  0
M  END
> <standard_type>
pIC50

> <# Confs.>
25

> <canonical_smiles>
O=C(CC1=CC(NC2=NC=NC3=CC(OCCCN4CCC(CO)CC4)=C(OC)C=C23)=NN1)NC5=CC=CC(C(F)(F)F)=C5

> <standard_relation>
=

> <Publication_ID>
nan

> <predicted_activity_value>
7.886056647693163

> <actual_activity_value>
7.886056647693163

> <Compound>
9

> <standard_units>
nM

> hash
2551856031523063432

$$$$
9_
XXILIB    08252103493D 0   0.00000     0.00000

 44 48  0     1  0            999 V2000
    6.5295    4.0313    6.9766 F   0  0  0  0  0  1           0  0  0
    7.6330    3.3433    8.7192 F   0  0  0  0  0  1           0  0  0
    5.4840    3.6148    8.8373 F   0  0  0  0  0  1           0  0  0
   -2.9808    0.2177   -4.7450 O   0  0  0  0  0  2           0  0  0
   -0.3851    0.1979   -4.9479 O   0  0  0  0  0  2           0  0  0
    5.5061   -2.4252    4.4524 O   0  0  0  0  0  2           0  0  0
   -7.9799    6.9180   -5.2617 O   0  0  0  0  0  2           0  0  0
    3.1052   -1.5044    2.6039 N   0  0  0  0  0  3           0  0  0
    1.9248   -1.1852    2.0528 N   0  0  0  0  0  3           0  0  0
   -0.6508    0.0000    1.1900 N   0  0  0  0  0  3           0  0  0
   -2.7546    0.0492    0.0438 N   0  0  0  0  0  3           0  0  0
    1.4153    0.0000    0.0000 N   0  0  0  0  0  3           0  0  0
    5.8538   -0.1268    4.4139 N   0  0  0  0  0  3           0  0  0
   -4.9669    2.8416   -6.2764 N   0  0  1  0  0  3           0  0  0
   -2.2850    0.1676   -3.5703 C   0  0  0  0  0  4           0  0  0
   -0.8910    0.1559   -3.6794 C   0  0  0  0  0  4           0  0  0
   -1.9895    0.0157    1.1439 C   0  0  0  0  0  4           0  0  0
    2.2541   -0.5347    0.9262 C   0  0  0  0  0  4           0  0  0
    0.0000    0.0000    0.0000 C   0  0  0  0  0  4           0  0  0
   -2.1156    0.0764   -1.1331 C   0  0  0  0  0  4           0  0  0
    4.1890   -1.0766    1.8911 C   0  0  0  0  0  4           0  0  0
    5.9525    0.1234    5.7958 C   0  0  0  0  0  4           0  0  0
   -0.7109    0.0605   -1.2272 C   0  0  0  0  0  4           0  0  0
    6.2762    1.7493    7.5790 C   0  0  0  0  0  4           0  0  0
   -2.8741    0.1264   -2.3003 C   0  0  0  0  0  4           0  0  0
   -0.1162    0.1093   -2.5146 C   0  0  0  0  0  4           0  0  0
    3.6648   -0.4497    0.7835 C   0  0  0  0  0  4           0  0  0
    6.1643    1.4433    6.2159 C   0  0  0  0  0  4           0  0  0
    5.8443   -0.8955    6.7481 C   0  0  0  0  0  4           0  0  0
    6.1548    0.7216    8.5204 C   0  0  0  0  0  4           0  0  0
    5.9449   -0.5939    8.1064 C   0  0  0  0  0  4           0  0  0
    6.4771    3.1613    8.0228 C   0  0  1  0  0  4           0  0  0
    5.6465   -1.3681    3.8378 C   0  0  0  0  0  4           0  0  0
   -4.4030    0.2291   -4.6179 C   0  0  0  0  0  4           0  0  0
   -6.5956    6.7834   -5.5568 C   0  0  0  0  0  4           0  0  0
    1.0376    0.1851   -5.0366 C   0  0  0  0  0  4           0  0  0
   -4.6283    1.5251   -6.8225 C   0  0  0  0  0  4           0  0  0
   -4.5247    3.9278   -7.1663 C   0  0  0  0  0  4           0  0  0
   -6.4149    2.9307   -6.0321 C   0  0  0  0  0  4           0  0  0
    5.5866   -1.3140    2.3286 C   0  0  0  0  0  4           0  0  0
   -6.3229    5.4511   -6.2403 C   0  0  1  0  0  4           0  0  0
   -5.0249    0.2862   -6.0076 C   0  0  0  0  0  4           0  0  0
   -4.8328    5.2994   -6.5613 C   0  0  0  0  0  4           0  0  0
   -6.7874    4.2655   -5.3834 C   0  0  0  0  0  4           0  0  0
  1 32  1  0     0  0
  2 32  1  0     0  0
  3 32  1  0     0  0
  4 15  1  0     0  0
  4 34  1  0     0  0
  5 16  1  0     0  0
  5 36  1  0     0  0
  6 33  2  0     0  0
  7 35  1  0     0  0
  8  9  1  0     0  0
  8 21  1  0     0  0
  9 18  2  0     0  0
 10 17  1  0     0  0
 10 19  2  0     0  0
 11 17  2  0     0  0
 11 20  1  0     0  0
 12 18  1  0     0  0
 12 19  1  0     0  0
 13 22  1  0     0  0
 13 33  1  0     0  0
 14 37  1  0     0  0
 14 38  1  0     0  0
 14 39  1  0     0  0
 15 16  2  0     0  0
 15 25  1  0     0  0
 16 26  1  0     0  0
 18 27  1  0     0  0
 19 23  1  0     0  0
 20 23  1  0     0  0
 20 25  2  0     0  0
 21 27  2  0     0  0
 21 40  1  0     0  0
 22 28  1  0     0  0
 22 29  2  0     0  0
 23 26  2  0     0  0
 24 28  2  0     0  0
 24 30  1  0     0  0
 24 32  1  0     0  0
 29 31  1  0     0  0
 30 31  2  0     0  0
 33 40  1  0     0  0
 34 42  1  0     0  0
 35 41  1  0     0  0
 37 42  1  0     0  0
 38 43  1  0     0  0
 39 44  1  0     0  0
 41 43  1  0     0  0
 41 44  1  0     0  0
M  END
> <standard_type>
pIC50

> <# Confs.>
25

> <canonical_smiles>
O=C(CC1=CC(NC2=NC=NC3=CC(OCCCN4CCC(CO)CC4)=C(OC)C=C23)=NN1)NC5=CC=CC(C(F)(F)F)=C5

> <standard_relation>
=

> <Publication_ID>
nan

> <predicted_activity_value>
7.886056647693163

> <actual_activity_value>
7.886056647693163

> <Compound>
9

> <standard_units>
nM

> hash
2551856031523063432

$$$$
9_
XXILIB    08252103493D 0   0.00000     0.00000

 44 48  0     1  0            999 V2000
    6.5295    4.0313    6.9766 F   0  0  0  0  0  1           0  0  0
    7.6330    3.3433    8.7192 F   0  0  0  0  0  1           0  0  0
    5.4840    3.6148    8.8373 F   0  0  0  0  0  1           0  0  0
   -2.9808    0.2177   -4.7450 O   0  0  0  0  0  2           0  0  0
   -0.3851    0.1979   -4.9479 O   0  0  0  0  0  2           0  0  0
    5.5061   -2.4252    4.4524 O   0  0  0  0  0  2           0  0  0
   -2.0788   -8.1446   -5.0983 O   0  0  0  0  0  2           0  0  0
    3.1052   -1.5044    2.6039 N   0  0  0  0  0  3           0  0  0
    1.9248   -1.1852    2.0528 N   0  0  0  0  0  3           0  0  0
   -0.6508    0.0000    1.1900 N   0  0  0  0  0  3           0  0  0
   -2.7546    0.0492    0.0438 N   0  0  0  0  0  3           0  0  0
    1.4153    0.0000    0.0000 N   0  0  0  0  0  3           0  0  0
    5.8538   -0.1268    4.4139 N   0  0  0  0  0  3           0  0  0
   -3.3857   -3.2049   -5.8833 N   0  0  1  0  0  3           0  0  0
   -2.2850    0.1676   -3.5703 C   0  0  0  0  0  4           0  0  0
   -0.8910    0.1559   -3.6794 C   0  0  0  0  0  4           0  0  0
   -1.9895    0.0157    1.1439 C   0  0  0  0  0  4           0  0  0
    2.2541   -0.5347    0.9262 C   0  0  0  0  0  4           0  0  0
    0.0000    0.0000    0.0000 C   0  0  0  0  0  4           0  0  0
   -2.1156    0.0764   -1.1331 C   0  0  0  0  0  4           0  0  0
    4.1890   -1.0766    1.8911 C   0  0  0  0  0  4           0  0  0
    5.9525    0.1234    5.7958 C   0  0  0  0  0  4           0  0  0
   -0.7109    0.0605   -1.2272 C   0  0  0  0  0  4           0  0  0
    6.2762    1.7493    7.5790 C   0  0  0  0  0  4           0  0  0
   -2.8741    0.1264   -2.3003 C   0  0  0  0  0  4           0  0  0
   -0.1162    0.1093   -2.5146 C   0  0  0  0  0  4           0  0  0
    3.6648   -0.4497    0.7835 C   0  0  0  0  0  4           0  0  0
    6.1643    1.4433    6.2159 C   0  0  0  0  0  4           0  0  0
    5.8443   -0.8955    6.7481 C   0  0  0  0  0  4           0  0  0
    6.1548    0.7216    8.5204 C   0  0  0  0  0  4           0  0  0
    5.9449   -0.5939    8.1064 C   0  0  0  0  0  4           0  0  0
    6.4771    3.1613    8.0228 C   0  0  1  0  0  4           0  0  0
    5.6465   -1.3681    3.8378 C   0  0  0  0  0  4           0  0  0
   -4.2617   -0.4131   -4.7290 C   0  0  0  0  0  4           0  0  0
   -3.1163   -7.3209   -4.5818 C   0  0  0  0  0  4           0  0  0
    1.0376    0.1851   -5.0366 C   0  0  0  0  0  4           0  0  0
   -3.5626   -1.9682   -6.6484 C   0  0  0  0  0  4           0  0  0
   -4.6422   -3.9654   -5.7839 C   0  0  0  0  0  4           0  0  0
   -2.3295   -4.0290   -6.4913 C   0  0  0  0  0  4           0  0  0
    5.5866   -1.3140    2.3286 C   0  0  0  0  0  4           0  0  0
   -3.3437   -6.1188   -5.4872 C   0  0  1  0  0  4           0  0  0
   -4.5735   -0.9385   -6.1248 C   0  0  0  0  0  4           0  0  0
   -4.4606   -5.2268   -4.9365 C   0  0  0  0  0  4           0  0  0
   -2.0645   -5.2897   -5.6656 C   0  0  0  0  0  4           0  0  0
  1 32  1  0     0  0
  2 32  1  0     0  0
  3 32  1  0     0  0
  4 15  1  0     0  0
  4 34  1  0     0  0
  5 16  1  0     0  0
  5 36  1  0     0  0
  6 33  2  0     0  0
  7 35  1  0     0  0
  8  9  1  0     0  0
  8 21  1  0     0  0
  9 18  2  0     0  0
 10 17  1  0     0  0
 10 19  2  0     0  0
 11 17  2  0     0  0
 11 20  1  0     0  0
 12 18  1  0     0  0
 12 19  1  0     0  0
 13 22  1  0     0  0
 13 33  1  0     0  0
 14 37  1  0     0  0
 14 38  1  0     0  0
 14 39  1  0     0  0
 15 16  2  0     0  0
 15 25  1  0     0  0
 16 26  1  0     0  0
 18 27  1  0     0  0
 19 23  1  0     0  0
 20 23  1  0     0  0
 20 25  2  0     0  0
 21 27  2  0     0  0
 21 40  1  0     0  0
 22 28  1  0     0  0
 22 29  2  0     0  0
 23 26  2  0     0  0
 24 28  2  0     0  0
 24 30  1  0     0  0
 24 32  1  0     0  0
 29 31  1  0     0  0
 30 31  2  0     0  0
 33 40  1  0     0  0
 34 42  1  0     0  0
 35 41  1  0     0  0
 37 42  1  0     0  0
 38 43  1  0     0  0
 39 44  1  0     0  0
 41 43  1  0     0  0
 41 44  1  0     0  0
M  END
> <standard_type>
pIC50

> <# Confs.>
25

> <canonical_smiles>
O=C(CC1=CC(NC2=NC=NC3=CC(OCCCN4CCC(CO)CC4)=C(OC)C=C23)=NN1)NC5=CC=CC(C(F)(F)F)=C5

> <standard_relation>
=

> <Publication_ID>
nan

> <predicted_activity_value>
7.886056647693163

> <actual_activity_value>
7.886056647693163

> <Compound>
9

> <standard_units>
nM

> hash
2551856031523063432

$$$$
9_
XXILIB    08252103493D 0   0.00000     0.00000

 44 48  0     1  0            999 V2000
    9.0271   -2.5401   -3.8134 F   0  0  0  0  0  1           0  0  0
    8.4802   -4.4832   -4.6212 F   0  0  0  0  0  1           0  0  0
   10.3793   -4.2302   -3.6037 F   0  0  0  0  0  1           0  0  0
   -2.9808    0.2177   -4.7450 O   0  0  0  0  0  2           0  0  0
   -0.3851    0.1979   -4.9479 O   0  0  0  0  0  2           0  0  0
    5.9427   -3.6852    2.3737 O   0  0  0  0  0  2           0  0  0
   -9.2844   -5.5840   -5.1915 O   0  0  0  0  0  2           0  0  0
    3.1052   -1.5044    2.6039 N   0  0  0  0  0  3           0  0  0
    1.9248   -1.1852    2.0528 N   0  0  0  0  0  3           0  0  0
   -0.6508    0.0000    1.1900 N   0  0  0  0  0  3           0  0  0
   -2.7546    0.0492    0.0438 N   0  0  0  0  0  3           0  0  0
    1.4153   -0.0000   -0.0000 N   0  0  0  0  0  3           0  0  0
    6.7009   -2.4830    0.5340 N   0  0  0  0  0  3           0  0  0
   -7.2580   -0.8327   -5.4020 N   0  0  1  0  0  3           0  0  0
   -2.2850    0.1676   -3.5703 C   0  0  0  0  0  4           0  0  0
   -0.8910    0.1559   -3.6794 C   0  0  0  0  0  4           0  0  0
   -1.9895    0.0157    1.1439 C   0  0  0  0  0  4           0  0  0
    2.2541   -0.5347    0.9262 C   0  0  0  0  0  4           0  0  0
    0.0000    0.0000    0.0000 C   0  0  0  0  0  4           0  0  0
   -2.1156    0.0764   -1.1331 C   0  0  0  0  0  4           0  0  0
    4.1890   -1.0766    1.8911 C   0  0  0  0  0  4           0  0  0
    7.2568   -3.5310   -0.2241 C   0  0  0  0  0  4           0  0  0
   -0.7109    0.0605   -1.2272 C   0  0  0  0  0  4           0  0  0
    8.4128   -4.2201   -2.2531 C   0  0  0  0  0  4           0  0  0
   -2.8741    0.1264   -2.3003 C   0  0  0  0  0  4           0  0  0
   -0.1162    0.1093   -2.5146 C   0  0  0  0  0  4           0  0  0
    3.6648   -0.4497    0.7835 C   0  0  0  0  0  4           0  0  0
    7.8492   -3.2160   -1.4543 C   0  0  0  0  0  4           0  0  0
    7.2360   -4.8599    0.2123 C   0  0  0  0  0  4           0  0  0
    8.3946   -5.5431   -1.7986 C   0  0  0  0  0  4           0  0  0
    7.8051   -5.8612   -0.5750 C   0  0  0  0  0  4           0  0  0
    9.0651   -3.8758   -3.5520 C   0  0  1  0  0  4           0  0  0
    6.0822   -2.6253    1.7639 C   0  0  0  0  0  4           0  0  0
   -4.4030    0.2291   -4.6179 C   0  0  0  0  0  4           0  0  0
   -9.6764   -4.3358   -4.6349 C   0  0  0  0  0  4           0  0  0
    1.0376    0.1851   -5.0366 C   0  0  0  0  0  4           0  0  0
   -6.5599    0.3035   -6.0083 C   0  0  0  0  0  4           0  0  0
   -8.7197   -0.6742   -5.4779 C   0  0  0  0  0  4           0  0  0
   -6.8399   -2.0866   -6.0480 C   0  0  0  0  0  4           0  0  0
    5.5866   -1.3140    2.3286 C   0  0  0  0  0  4           0  0  0
   -9.0212   -3.1866   -5.3876 C   0  0  1  0  0  4           0  0  0
   -5.0249    0.2862   -6.0076 C   0  0  0  0  0  4           0  0  0
   -9.4393   -1.8383   -4.7930 C   0  0  0  0  0  4           0  0  0
   -7.4905   -3.2995   -5.3796 C   0  0  0  0  0  4           0  0  0
  1 32  1  0     0  0
  2 32  1  0     0  0
  3 32  1  0     0  0
  4 15  1  0     0  0
  4 34  1  0     0  0
  5 16  1  0     0  0
  5 36  1  0     0  0
  6 33  2  0     0  0
  7 35  1  0     0  0
  8  9  1  0     0  0
  8 21  1  0     0  0
  9 18  2  0     0  0
 10 17  1  0     0  0
 10 19  2  0     0  0
 11 17  2  0     0  0
 11 20  1  0     0  0
 12 18  1  0     0  0
 12 19  1  0     0  0
 13 22  1  0     0  0
 13 33  1  0     0  0
 14 37  1  0     0  0
 14 38  1  0     0  0
 14 39  1  0     0  0
 15 16  2  0     0  0
 15 25  1  0     0  0
 16 26  1  0     0  0
 18 27  1  0     0  0
 19 23  1  0     0  0
 20 23  1  0     0  0
 20 25  2  0     0  0
 21 27  2  0     0  0
 21 40  1  0     0  0
 22 28  1  0     0  0
 22 29  2  0     0  0
 23 26  2  0     0  0
 24 28  2  0     0  0
 24 30  1  0     0  0
 24 32  1  0     0  0
 29 31  1  0     0  0
 30 31  2  0     0  0
 33 40  1  0     0  0
 34 42  1  0     0  0
 35 41  1  0     0  0
 37 42  1  0     0  0
 38 43  1  0     0  0
 39 44  1  0     0  0
 41 43  1  0     0  0
 41 44  1  0     0  0
M  END
> <standard_type>
pIC50

> <# Confs.>
25

> <canonical_smiles>
O=C(CC1=CC(NC2=NC=NC3=CC(OCCCN4CCC(CO)CC4)=C(OC)C=C23)=NN1)NC5=CC=CC(C(F)(F)F)=C5

> <standard_relation>
=

> <Publication_ID>
nan

> <predicted_activity_value>
7.886056647693163

> <actual_activity_value>
7.886056647693163

> <Compound>
9

> <standard_units>
nM

> hash
2551856031523063432

$$$$
9_
XXILIB    08252103493D 0   0.00000     0.00000

 44 48  0     1  0            999 V2000
    9.0271   -4.5725    0.2931 F   0  0  0  0  0  1           0  0  0
    8.4802   -6.2437    1.5720 F   0  0  0  0  0  1           0  0  0
   10.3793   -5.2360    1.8616 F   0  0  0  0  0  1           0  0  0
   -2.9808    0.2177   -4.7450 O   0  0  0  0  0  2           0  0  0
   -0.3851    0.1979   -4.9479 O   0  0  0  0  0  2           0  0  0
    5.9427    0.2131    4.3784 O   0  0  0  0  0  2           0  0  0
  -11.1034    4.6607   -4.2411 O   0  0  0  0  0  2           0  0  0
    3.1052    1.5029    2.6048 N   0  0  0  0  0  3           0  0  0
    1.9248    1.1852    2.0528 N   0  0  0  0  0  3           0  0  0
   -0.6508    0.0000    1.1900 N   0  0  0  0  0  3           0  0  0
   -2.7546    0.0492    0.0438 N   0  0  0  0  0  3           0  0  0
    1.4153   -0.0000    0.0000 N   0  0  0  0  0  3           0  0  0
    6.7009   -0.7790    2.4173 N   0  0  0  0  0  3           0  0  0
   -7.2329    1.4084   -5.3211 N   0  0  1  0  0  3           0  0  0
   -2.2850    0.1676   -3.5703 C   0  0  0  0  0  4           0  0  0
   -0.8910    0.1559   -3.6794 C   0  0  0  0  0  4           0  0  0
   -1.9895    0.0157    1.1439 C   0  0  0  0  0  4           0  0  0
    2.2541    0.5347    0.9262 C   0  0  0  0  0  4           0  0  0
    0.0000    0.0000    0.0000 C   0  0  0  0  0  4           0  0  0
   -2.1156    0.0764   -1.1331 C   0  0  0  0  0  4           0  0  0
    4.1890    1.0995    1.8779 C   0  0  0  0  0  4           0  0  0
    7.2568   -1.9595    2.9459 C   0  0  0  0  0  4           0  0  0
   -0.7109    0.0605   -1.2272 C   0  0  0  0  0  4           0  0  0
    8.4128   -4.0613    2.5282 C   0  0  0  0  0  4           0  0  0
   -2.8741    0.1264   -2.3003 C   0  0  0  0  0  4           0  0  0
   -0.1162    0.1093   -2.5146 C   0  0  0  0  0  4           0  0  0
    3.6648    0.4537    0.7812 C   0  0  0  0  0  4           0  0  0
    7.8492   -2.8674    2.0580 C   0  0  0  0  0  4           0  0  0
    7.2360   -2.2461    4.3149 C   0  0  0  0  0  4           0  0  0
    8.3946   -4.3292    3.9012 C   0  0  0  0  0  4           0  0  0
    7.8051   -3.4285    4.7884 C   0  0  0  0  0  4           0  0  0
    9.0651   -5.0140    1.5806 C   0  0  1  0  0  4           0  0  0
    6.0822    0.2149    3.1555 C   0  0  0  0  0  4           0  0  0
   -4.4030    0.2291   -4.6179 C   0  0  0  0  0  4           0  0  0
   -9.6897    4.8096   -4.2703 C   0  0  0  0  0  4           0  0  0
    1.0376    0.1851   -5.0366 C   0  0  0  0  0  4           0  0  0
   -6.5599    0.3035   -6.0083 C   0  0  0  0  0  4           0  0  0
   -6.8667    2.7110   -5.9011 C   0  0  0  0  0  4           0  0  0
   -8.6909    1.2161   -5.3617 C   0  0  0  0  0  4           0  0  0
    5.5866    1.3597    2.3022 C   0  0  0  0  0  4           0  0  0
   -9.0543    3.7074   -5.1058 C   0  0  1  0  0  4           0  0  0
   -5.0249    0.2862   -6.0076 C   0  0  0  0  0  4           0  0  0
   -7.5308    3.8618   -5.1416 C   0  0  0  0  0  4           0  0  0
   -9.4175    2.3122   -4.5794 C   0  0  0  0  0  4           0  0  0
  1 32  1  0     0  0
  2 32  1  0     0  0
  3 32  1  0     0  0
  4 15  1  0     0  0
  4 34  1  0     0  0
  5 16  1  0     0  0
  5 36  1  0     0  0
  6 33  2  0     0  0
  7 35  1  0     0  0
  8  9  1  0     0  0
  8 21  1  0     0  0
  9 18  2  0     0  0
 10 17  1  0     0  0
 10 19  2  0     0  0
 11 17  2  0     0  0
 11 20  1  0     0  0
 12 18  1  0     0  0
 12 19  1  0     0  0
 13 22  1  0     0  0
 13 33  1  0     0  0
 14 37  1  0     0  0
 14 38  1  0     0  0
 14 39  1  0     0  0
 15 16  2  0     0  0
 15 25  1  0     0  0
 16 26  1  0     0  0
 18 27  1  0     0  0
 19 23  1  0     0  0
 20 23  1  0     0  0
 20 25  2  0     0  0
 21 27  2  0     0  0
 21 40  1  0     0  0
 22 28  1  0     0  0
 22 29  2  0     0  0
 23 26  2  0     0  0
 24 28  2  0     0  0
 24 30  1  0     0  0
 24 32  1  0     0  0
 29 31  1  0     0  0
 30 31  2  0     0  0
 33 40  1  0     0  0
 34 42  1  0     0  0
 35 41  1  0     0  0
 37 42  1  0     0  0
 38 43  1  0     0  0
 39 44  1  0     0  0
 41 43  1  0     0  0
 41 44  1  0     0  0
M  END
> <standard_type>
pIC50

> <# Confs.>
25

> <canonical_smiles>
O=C(CC1=CC(NC2=NC=NC3=CC(OCCCN4CCC(CO)CC4)=C(OC)C=C23)=NN1)NC5=CC=CC(C(F)(F)F)=C5

> <standard_relation>
=

> <Publication_ID>
nan

> <predicted_activity_value>
7.886056647693163

> <actual_activity_value>
7.886056647693163

> <Compound>
9

> <standard_units>
nM

> hash
2551856031523063432

$$$$
9_
XXILIB    08252103493D 0   0.00000     0.00000

 44 48  0     1  0            999 V2000
    6.5295    8.0576   -0.0029 F   0  0  0  0  0  1           0  0  0
    7.6330    9.2227    1.4642 F   0  0  0  0  0  1           0  0  0
    5.4840    9.4608    1.2881 F   0  0  0  0  0  1           0  0  0
   -2.9808    0.2177   -4.7450 O   0  0  0  0  0  2           0  0  0
   -0.3851    0.1979   -4.9479 O   0  0  0  0  0  2           0  0  0
    5.5061    2.6433    4.3265 O   0  0  0  0  0  2           0  0  0
  -11.1560   -0.2657  -10.6239 O   0  0  0  0  0  2           0  0  0
    3.1052    1.5029    2.6048 N   0  0  0  0  0  3           0  0  0
    1.9248    1.1852    2.0528 N   0  0  0  0  0  3           0  0  0
   -0.6508    0.0000    1.1900 N   0  0  0  0  0  3           0  0  0
   -2.7546    0.0492    0.0438 N   0  0  0  0  0  3           0  0  0
    1.4153    0.0000   -0.0000 N   0  0  0  0  0  3           0  0  0
    5.8538    3.7591    2.3168 N   0  0  0  0  0  3           0  0  0
   -7.2438    0.3578   -7.3026 N   0  0  1  0  0  3           0  0  0
   -2.2850    0.1676   -3.5703 C   0  0  0  0  0  4           0  0  0
   -0.8910    0.1559   -3.6794 C   0  0  0  0  0  4           0  0  0
   -1.9895    0.0157    1.1439 C   0  0  0  0  0  4           0  0  0
    2.2541    0.5347    0.9262 C   0  0  0  0  0  4           0  0  0
    0.0000    0.0000    0.0000 C   0  0  0  0  0  4           0  0  0
   -2.1156    0.0764   -1.1331 C   0  0  0  0  0  4           0  0  0
    4.1890    1.0995    1.8779 C   0  0  0  0  0  4           0  0  0
    5.9525    5.0810    2.7911 C   0  0  0  0  0  4           0  0  0
   -0.7109    0.0605   -1.2272 C   0  0  0  0  0  4           0  0  0
    6.2762    7.4382    2.2746 C   0  0  0  0  0  4           0  0  0
   -2.8741    0.1264   -2.3003 C   0  0  0  0  0  4           0  0  0
   -0.1162    0.1093   -2.5146 C   0  0  0  0  0  4           0  0  0
    3.6648    0.4537    0.7812 C   0  0  0  0  0  4           0  0  0
    6.1643    6.1048    1.8580 C   0  0  0  0  0  4           0  0  0
    5.8443    5.3962    4.1496 C   0  0  0  0  0  4           0  0  0
    6.1548    7.7397    3.6353 C   0  0  0  0  0  4           0  0  0
    5.9449    6.7234    4.5675 C   0  0  0  0  0  4           0  0  0
    6.4771    8.5286    1.2736 C   0  0  1  0  0  4           0  0  0
    5.6465    2.6396    3.1037 C   0  0  0  0  0  4           0  0  0
   -4.4030    0.2291   -4.6179 C   0  0  0  0  0  4           0  0  0
   -9.7453   -0.3898  -10.7511 C   0  0  0  0  0  4           0  0  0
    1.0376    0.1851   -5.0366 C   0  0  0  0  0  4           0  0  0
   -6.5599    0.3035   -6.0083 C   0  0  0  0  0  4           0  0  0
   -6.9052   -0.8018   -8.1440 C   0  0  0  0  0  4           0  0  0
   -8.6988    0.4439   -7.1025 C   0  0  0  0  0  4           0  0  0
    5.5866    1.3597    2.3022 C   0  0  0  0  0  4           0  0  0
   -9.1005   -0.5734   -9.3846 C   0  0  1  0  0  4           0  0  0
   -5.0249    0.2862   -6.0076 C   0  0  0  0  0  4           0  0  0
   -7.5802   -0.7078   -9.5142 C   0  0  0  0  0  4           0  0  0
   -9.4352    0.5861   -8.4363 C   0  0  0  0  0  4           0  0  0
  1 32  1  0     0  0
  2 32  1  0     0  0
  3 32  1  0     0  0
  4 15  1  0     0  0
  4 34  1  0     0  0
  5 16  1  0     0  0
  5 36  1  0     0  0
  6 33  2  0     0  0
  7 35  1  0     0  0
  8  9  1  0     0  0
  8 21  1  0     0  0
  9 18  2  0     0  0
 10 17  1  0     0  0
 10 19  2  0     0  0
 11 17  2  0     0  0
 11 20  1  0     0  0
 12 18  1  0     0  0
 12 19  1  0     0  0
 13 22  1  0     0  0
 13 33  1  0     0  0
 14 37  1  0     0  0
 14 38  1  0     0  0
 14 39  1  0     0  0
 15 16  2  0     0  0
 15 25  1  0     0  0
 16 26  1  0     0  0
 18 27  1  0     0  0
 19 23  1  0     0  0
 20 23  1  0     0  0
 20 25  2  0     0  0
 21 27  2  0     0  0
 21 40  1  0     0  0
 22 28  1  0     0  0
 22 29  2  0     0  0
 23 26  2  0     0  0
 24 28  2  0     0  0
 24 30  1  0     0  0
 24 32  1  0     0  0
 29 31  1  0     0  0
 30 31  2  0     0  0
 33 40  1  0     0  0
 34 42  1  0     0  0
 35 41  1  0     0  0
 37 42  1  0     0  0
 38 43  1  0     0  0
 39 44  1  0     0  0
 41 43  1  0     0  0
 41 44  1  0     0  0
M  END
> <standard_type>
pIC50

> <# Confs.>
25

> <canonical_smiles>
O=C(CC1=CC(NC2=NC=NC3=CC(OCCCN4CCC(CO)CC4)=C(OC)C=C23)=NN1)NC5=CC=CC(C(F)(F)F)=C5

> <standard_relation>
=

> <Publication_ID>
nan

> <predicted_activity_value>
7.886056647693163

> <actual_activity_value>
7.886056647693163

> <Compound>
9

> <standard_units>
nM

> hash
2551856031523063432

$$$$
9_
XXILIB    08252103493D 0   0.00000     0.00000

 44 48  0     1  0            999 V2000
    8.7285    4.7975    0.3681 F   0  0  0  0  0  1           0  0  0
   10.1295    5.4602    1.8930 F   0  0  0  0  0  1           0  0  0
    8.1832    6.4038    1.7286 F   0  0  0  0  0  1           0  0  0
   -2.9808    0.2177   -4.7450 O   0  0  0  0  0  2           0  0  0
   -0.3851    0.1979   -4.9479 O   0  0  0  0  0  2           0  0  0
    5.8999   -0.1746    4.4156 O   0  0  0  0  0  2           0  0  0
  -11.1541   -3.2617   -6.5591 O   0  0  0  0  0  2           0  0  0
    3.1052   -1.5044    2.6039 N   0  0  0  0  0  3           0  0  0
    1.9248   -1.1852    2.0528 N   0  0  0  0  0  3           0  0  0
   -0.6508    0.0000    1.1900 N   0  0  0  0  0  3           0  0  0
   -2.7546    0.0492    0.0438 N   0  0  0  0  0  3           0  0  0
    1.4153    0.0000    0.0000 N   0  0  0  0  0  3           0  0  0
    6.6311    0.8584    2.4655 N   0  0  0  0  0  3           0  0  0
   -7.2580   -0.8327   -5.4020 N   0  0  1  0  0  3           0  0  0
   -2.2850    0.1676   -3.5703 C   0  0  0  0  0  4           0  0  0
   -0.8910    0.1559   -3.6794 C   0  0  0  0  0  4           0  0  0
   -1.9895    0.0157    1.1439 C   0  0  0  0  0  4           0  0  0
    2.2541   -0.5347    0.9262 C   0  0  0  0  0  4           0  0  0
    0.0000    0.0000    0.0000 C   0  0  0  0  0  4           0  0  0
   -2.1156    0.0764   -1.1331 C   0  0  0  0  0  4           0  0  0
    4.1890   -1.0766    1.8911 C   0  0  0  0  0  4           0  0  0
    7.1528    2.0488    3.0066 C   0  0  0  0  0  4           0  0  0
   -0.7109    0.0605   -1.2272 C   0  0  0  0  0  4           0  0  0
    8.2457    4.1882    2.6109 C   0  0  0  0  0  4           0  0  0
   -2.8741    0.1264   -2.3003 C   0  0  0  0  0  4           0  0  0
   -0.1162    0.1093   -2.5146 C   0  0  0  0  0  4           0  0  0
    3.6648   -0.4497    0.7835 C   0  0  0  0  0  4           0  0  0
    7.7068    2.9885    2.1270 C   0  0  0  0  0  4           0  0  0
    7.1315    2.3166    4.3794 C   0  0  0  0  0  4           0  0  0
    8.2074    4.4472    3.9852 C   0  0  0  0  0  4           0  0  0
    7.6577    3.5141    4.8644 C   0  0  0  0  0  4           0  0  0
    8.8126    5.1975    1.6669 C   0  0  1  0  0  4           0  0  0
    6.0522   -0.1659    3.1943 C   0  0  0  0  0  4           0  0  0
   -4.4030    0.2291   -4.6179 C   0  0  0  0  0  4           0  0  0
   -9.7426   -3.3855   -6.6764 C   0  0  0  0  0  4           0  0  0
    1.0376    0.1851   -5.0366 C   0  0  0  0  0  4           0  0  0
   -6.5599    0.3035   -6.0083 C   0  0  0  0  0  4           0  0  0
   -6.8992   -2.0790   -6.0964 C   0  0  0  0  0  4           0  0  0
   -8.7169   -0.6373   -5.3995 C   0  0  0  0  0  4           0  0  0
    5.5866   -1.3140    2.3286 C   0  0  0  0  0  4           0  0  0
   -9.0736   -3.1636   -5.3274 C   0  0  1  0  0  4           0  0  0
   -5.0249    0.2862   -6.0076 C   0  0  0  0  0  4           0  0  0
   -7.5491   -3.2917   -5.4255 C   0  0  0  0  0  4           0  0  0
   -9.4303   -1.8036   -4.7092 C   0  0  0  0  0  4           0  0  0
  1 32  1  0     0  0
  2 32  1  0     0  0
  3 32  1  0     0  0
  4 15  1  0     0  0
  4 34  1  0     0  0
  5 16  1  0     0  0
  5 36  1  0     0  0
  6 33  2  0     0  0
  7 35  1  0     0  0
  8  9  1  0     0  0
  8 21  1  0     0  0
  9 18  2  0     0  0
 10 17  1  0     0  0
 10 19  2  0     0  0
 11 17  2  0     0  0
 11 20  1  0     0  0
 12 18  1  0     0  0
 12 19  1  0     0  0
 13 22  1  0     0  0
 13 33  1  0     0  0
 14 37  1  0     0  0
 14 38  1  0     0  0
 14 39  1  0     0  0
 15 16  2  0     0  0
 15 25  1  0     0  0
 16 26  1  0     0  0
 18 27  1  0     0  0
 19 23  1  0     0  0
 20 23  1  0     0  0
 20 25  2  0     0  0
 21 27  2  0     0  0
 21 40  1  0     0  0
 22 28  1  0     0  0
 22 29  2  0     0  0
 23 26  2  0     0  0
 24 28  2  0     0  0
 24 30  1  0     0  0
 24 32  1  0     0  0
 29 31  1  0     0  0
 30 31  2  0     0  0
 33 40  1  0     0  0
 34 42  1  0     0  0
 35 41  1  0     0  0
 37 42  1  0     0  0
 38 43  1  0     0  0
 39 44  1  0     0  0
 41 43  1  0     0  0
 41 44  1  0     0  0
M  END
> <standard_type>
pIC50

> <# Confs.>
25

> <canonical_smiles>
O=C(CC1=CC(NC2=NC=NC3=CC(OCCCN4CCC(CO)CC4)=C(OC)C=C23)=NN1)NC5=CC=CC(C(F)(F)F)=C5

> <standard_relation>
=

> <Publication_ID>
nan

> <predicted_activity_value>
7.886056647693163

> <actual_activity_value>
7.886056647693163

> <Compound>
9

> <standard_units>
nM

> hash
2551856031523063432

$$$$
9_
XXILIB    08252103493D 0   0.00000     0.00000

 44 48  0     1  0            999 V2000
    6.5295    8.0576   -0.0029 F   0  0  0  0  0  1           0  0  0
    7.6330    9.2227    1.4642 F   0  0  0  0  0  1           0  0  0
    5.4840    9.4608    1.2881 F   0  0  0  0  0  1           0  0  0
   -2.9808    0.2177   -4.7450 O   0  0  0  0  0  2           0  0  0
   -0.3851    0.1979   -4.9479 O   0  0  0  0  0  2           0  0  0
    5.5061    2.6433    4.3265 O   0  0  0  0  0  2           0  0  0
   -6.1316   -7.2689   -6.9562 O   0  0  0  0  0  2           0  0  0
    3.1052    1.5029    2.6048 N   0  0  0  0  0  3           0  0  0
    1.9248    1.1852    2.0528 N   0  0  0  0  0  3           0  0  0
   -0.6508    0.0000    1.1900 N   0  0  0  0  0  3           0  0  0
   -2.7546    0.0492    0.0438 N   0  0  0  0  0  3           0  0  0
    1.4153    0.0000   -0.0000 N   0  0  0  0  0  3           0  0  0
    5.8538    3.7591    2.3168 N   0  0  0  0  0  3           0  0  0
   -5.0239   -2.2438   -6.4598 N   0  0  1  0  0  3           0  0  0
   -2.2850    0.1676   -3.5703 C   0  0  0  0  0  4           0  0  0
   -0.8910    0.1559   -3.6794 C   0  0  0  0  0  4           0  0  0
   -1.9895    0.0157    1.1439 C   0  0  0  0  0  4           0  0  0
    2.2541    0.5347    0.9262 C   0  0  0  0  0  4           0  0  0
    0.0000   -0.0000    0.0000 C   0  0  0  0  0  4           0  0  0
   -2.1156    0.0764   -1.1331 C   0  0  0  0  0  4           0  0  0
    4.1890    1.0995    1.8779 C   0  0  0  0  0  4           0  0  0
    5.9525    5.0810    2.7911 C   0  0  0  0  0  4           0  0  0
   -0.7109    0.0605   -1.2272 C   0  0  0  0  0  4           0  0  0
    6.2762    7.4382    2.2746 C   0  0  0  0  0  4           0  0  0
   -2.8741    0.1264   -2.3003 C   0  0  0  0  0  4           0  0  0
   -0.1162    0.1093   -2.5146 C   0  0  0  0  0  4           0  0  0
    3.6648    0.4537    0.7812 C   0  0  0  0  0  4           0  0  0
    6.1643    6.1048    1.8580 C   0  0  0  0  0  4           0  0  0
    5.8443    5.3962    4.1496 C   0  0  0  0  0  4           0  0  0
    6.1548    7.7397    3.6353 C   0  0  0  0  0  4           0  0  0
    5.9449    6.7234    4.5675 C   0  0  0  0  0  4           0  0  0
    6.4771    8.5286    1.2736 C   0  0  1  0  0  4           0  0  0
    5.6465    2.6396    3.1037 C   0  0  0  0  0  4           0  0  0
   -4.4030    0.2291   -4.6179 C   0  0  0  0  0  4           0  0  0
   -6.6215   -6.2469   -6.0976 C   0  0  0  0  0  4           0  0  0
    1.0376    0.1851   -5.0366 C   0  0  0  0  0  4           0  0  0
   -4.6555   -0.8994   -6.9099 C   0  0  0  0  0  4           0  0  0
   -6.4795   -2.3768   -6.2834 C   0  0  0  0  0  4           0  0  0
   -4.5244   -3.2499   -7.4098 C   0  0  0  0  0  4           0  0  0
    5.5866    1.3597    2.3022 C   0  0  0  0  0  4           0  0  0
   -6.3240   -4.8726   -6.6802 C   0  0  1  0  0  4           0  0  0
   -5.0249    0.2862   -6.0076 C   0  0  0  0  0  4           0  0  0
   -6.8492   -3.7665   -5.7600 C   0  0  0  0  0  4           0  0  0
   -4.8221   -4.6696   -6.9228 C   0  0  0  0  0  4           0  0  0
  1 32  1  0     0  0
  2 32  1  0     0  0
  3 32  1  0     0  0
  4 15  1  0     0  0
  4 34  1  0     0  0
  5 16  1  0     0  0
  5 36  1  0     0  0
  6 33  2  0     0  0
  7 35  1  0     0  0
  8  9  1  0     0  0
  8 21  1  0     0  0
  9 18  2  0     0  0
 10 17  1  0     0  0
 10 19  2  0     0  0
 11 17  2  0     0  0
 11 20  1  0     0  0
 12 18  1  0     0  0
 12 19  1  0     0  0
 13 22  1  0     0  0
 13 33  1  0     0  0
 14 37  1  0     0  0
 14 38  1  0     0  0
 14 39  1  0     0  0
 15 16  2  0     0  0
 15 25  1  0     0  0
 16 26  1  0     0  0
 18 27  1  0     0  0
 19 23  1  0     0  0
 20 23  1  0     0  0
 20 25  2  0     0  0
 21 27  2  0     0  0
 21 40  1  0     0  0
 22 28  1  0     0  0
 22 29  2  0     0  0
 23 26  2  0     0  0
 24 28  2  0     0  0
 24 30  1  0     0  0
 24 32  1  0     0  0
 29 31  1  0     0  0
 30 31  2  0     0  0
 33 40  1  0     0  0
 34 42  1  0     0  0
 35 41  1  0     0  0
 37 42  1  0     0  0
 38 43  1  0     0  0
 39 44  1  0     0  0
 41 43  1  0     0  0
 41 44  1  0     0  0
M  END
> <standard_type>
pIC50

> <# Confs.>
25

> <canonical_smiles>
O=C(CC1=CC(NC2=NC=NC3=CC(OCCCN4CCC(CO)CC4)=C(OC)C=C23)=NN1)NC5=CC=CC(C(F)(F)F)=C5

> <standard_relation>
=

> <Publication_ID>
nan

> <predicted_activity_value>
7.886056647693163

> <actual_activity_value>
7.886056647693163

> <Compound>
9

> <standard_units>
nM

> hash
2551856031523063432

$$$$
9_
XXILIB    08252103493D 0   0.00000     0.00000

 44 48  0     1  0            999 V2000
    9.0271   -2.5401   -3.8134 F   0  0  0  0  0  1           0  0  0
    8.4802   -4.4832   -4.6212 F   0  0  0  0  0  1           0  0  0
   10.3793   -4.2302   -3.6037 F   0  0  0  0  0  1           0  0  0
   -2.9808    0.2177   -4.7450 O   0  0  0  0  0  2           0  0  0
   -0.3851    0.1979   -4.9479 O   0  0  0  0  0  2           0  0  0
    5.9427   -3.6852    2.3737 O   0  0  0  0  0  2           0  0  0
  -11.1541   -3.2617   -6.5591 O   0  0  0  0  0  2           0  0  0
    3.1052   -1.5044    2.6039 N   0  0  0  0  0  3           0  0  0
    1.9248   -1.1852    2.0528 N   0  0  0  0  0  3           0  0  0
   -0.6508    0.0000    1.1900 N   0  0  0  0  0  3           0  0  0
   -2.7546    0.0492    0.0438 N   0  0  0  0  0  3           0  0  0
    1.4153   -0.0000   -0.0000 N   0  0  0  0  0  3           0  0  0
    6.7009   -2.4830    0.5340 N   0  0  0  0  0  3           0  0  0
   -7.2580   -0.8327   -5.4020 N   0  0  1  0  0  3           0  0  0
   -2.2850    0.1676   -3.5703 C   0  0  0  0  0  4           0  0  0
   -0.8910    0.1559   -3.6794 C   0  0  0  0  0  4           0  0  0
   -1.9895    0.0157    1.1439 C   0  0  0  0  0  4           0  0  0
    2.2541   -0.5347    0.9262 C   0  0  0  0  0  4           0  0  0
    0.0000    0.0000    0.0000 C   0  0  0  0  0  4           0  0  0
   -2.1156    0.0764   -1.1331 C   0  0  0  0  0  4           0  0  0
    4.1890   -1.0766    1.8911 C   0  0  0  0  0  4           0  0  0
    7.2568   -3.5310   -0.2241 C   0  0  0  0  0  4           0  0  0
   -0.7109    0.0605   -1.2272 C   0  0  0  0  0  4           0  0  0
    8.4128   -4.2201   -2.2531 C   0  0  0  0  0  4           0  0  0
   -2.8741    0.1264   -2.3003 C   0  0  0  0  0  4           0  0  0
   -0.1162    0.1093   -2.5146 C   0  0  0  0  0  4           0  0  0
    3.6648   -0.4497    0.7835 C   0  0  0  0  0  4           0  0  0
    7.8492   -3.2160   -1.4543 C   0  0  0  0  0  4           0  0  0
    7.2360   -4.8599    0.2123 C   0  0  0  0  0  4           0  0  0
    8.3946   -5.5431   -1.7986 C   0  0  0  0  0  4           0  0  0
    7.8051   -5.8612   -0.5750 C   0  0  0  0  0  4           0  0  0
    9.0651   -3.8758   -3.5520 C   0  0  1  0  0  4           0  0  0
    6.0822   -2.6253    1.7639 C   0  0  0  0  0  4           0  0  0
   -4.4030    0.2291   -4.6179 C   0  0  0  0  0  4           0  0  0
   -9.7426   -3.3855   -6.6764 C   0  0  0  0  0  4           0  0  0
    1.0376    0.1851   -5.0366 C   0  0  0  0  0  4           0  0  0
   -6.5599    0.3035   -6.0083 C   0  0  0  0  0  4           0  0  0
   -6.8992   -2.0790   -6.0964 C   0  0  0  0  0  4           0  0  0
   -8.7169   -0.6373   -5.3995 C   0  0  0  0  0  4           0  0  0
    5.5866   -1.3140    2.3286 C   0  0  0  0  0  4           0  0  0
   -9.0736   -3.1636   -5.3274 C   0  0  1  0  0  4           0  0  0
   -5.0249    0.2862   -6.0076 C   0  0  0  0  0  4           0  0  0
   -7.5491   -3.2917   -5.4255 C   0  0  0  0  0  4           0  0  0
   -9.4303   -1.8036   -4.7092 C   0  0  0  0  0  4           0  0  0
  1 32  1  0     0  0
  2 32  1  0     0  0
  3 32  1  0     0  0
  4 15  1  0     0  0
  4 34  1  0     0  0
  5 16  1  0     0  0
  5 36  1  0     0  0
  6 33  2  0     0  0
  7 35  1  0     0  0
  8  9  1  0     0  0
  8 21  1  0     0  0
  9 18  2  0     0  0
 10 17  1  0     0  0
 10 19  2  0     0  0
 11 17  2  0     0  0
 11 20  1  0     0  0
 12 18  1  0     0  0
 12 19  1  0     0  0
 13 22  1  0     0  0
 13 33  1  0     0  0
 14 37  1  0     0  0
 14 38  1  0     0  0
 14 39  1  0     0  0
 15 16  2  0     0  0
 15 25  1  0     0  0
 16 26  1  0     0  0
 18 27  1  0     0  0
 19 23  1  0     0  0
 20 23  1  0     0  0
 20 25  2  0     0  0
 21 27  2  0     0  0
 21 40  1  0     0  0
 22 28  1  0     0  0
 22 29  2  0     0  0
 23 26  2  0     0  0
 24 28  2  0     0  0
 24 30  1  0     0  0
 24 32  1  0     0  0
 29 31  1  0     0  0
 30 31  2  0     0  0
 33 40  1  0     0  0
 34 42  1  0     0  0
 35 41  1  0     0  0
 37 42  1  0     0  0
 38 43  1  0     0  0
 39 44  1  0     0  0
 41 43  1  0     0  0
 41 44  1  0     0  0
M  END
> <standard_type>
pIC50

> <# Confs.>
25

> <canonical_smiles>
O=C(CC1=CC(NC2=NC=NC3=CC(OCCCN4CCC(CO)CC4)=C(OC)C=C23)=NN1)NC5=CC=CC(C(F)(F)F)=C5

> <standard_relation>
=

> <Publication_ID>
nan

> <predicted_activity_value>
7.886056647693163

> <actual_activity_value>
7.886056647693163

> <Compound>
9

> <standard_units>
nM

> hash
2551856031523063432

$$$$
5_
XXILIB    08252103493D 0   0.00000     0.00000

 42 45  0     1  0            999 V2000
   -9.7513    6.4501   -0.1634 F   0  0  0  0  0  1           0  0  0
   -8.8654    8.9830   -0.3610 F   0  0  0  0  0  1           0  0  0
    1.3663    0.0000    0.0000 O   0  0  0  0  0  2           0  0  0
   -0.2639    0.0061    2.4192 O   0  0  0  0  0  2           0  0  0
   -9.4868    4.3492    0.8677 O   0  0  0  0  0  2           0  0  0
    3.8089   -5.3239   -2.9208 O   0  0  0  0  0  2           0  0  0
   -8.1615    1.4634    0.4636 N   0  0  0  0  0  3           0  0  0
   -7.0027    1.1424   -0.1403 N   0  0  0  0  0  3           0  0  0
   -4.7418   -0.0038   -1.6757 N   0  0  0  0  0  3           0  0  0
   -2.5362    0.0737   -2.6131 N   0  0  0  0  0  3           0  0  0
   -5.0928   -0.1066    0.6806 N   0  0  0  0  0  3           0  0  0
   -8.1014    4.2548   -0.9972 N   0  0  0  0  0  3           0  0  0
    3.4225   -3.8963    0.5610 N   0  0  1  0  0  3           0  0  0
   -8.5275    6.6659   -0.6671 C   0  0  0  0  0  4           0  0  0
   -8.0769    7.9791   -0.7693 C   0  0  0  0  0  4           0  0  0
    0.0000    0.0000    0.0000 C   0  0  0  0  0  4           0  0  0
   -0.7791    0.0000    1.1539 C   0  0  0  0  0  4           0  0  0
   -3.8744    0.0569   -2.6953 C   0  0  0  0  0  4           0  0  0
   -6.3329    0.4399    0.7878 C   0  0  0  0  0  4           0  0  0
   -4.2136   -0.0675   -0.4284 C   0  0  0  0  0  4           0  0  0
   -2.0100    0.0319   -1.3826 C   0  0  0  0  0  4           0  0  0
   -8.2691    0.9886    1.7355 C   0  0  0  0  0  4           0  0  0
   -7.7159    5.6064   -1.0815 C   0  0  0  0  0  4           0  0  0
   -2.8104   -0.0323   -0.2230 C   0  0  0  0  0  4           0  0  0
   -6.8182    8.2629   -1.2864 C   0  0  0  0  0  4           0  0  0
   -0.6238    0.0488   -1.2495 C   0  0  0  0  0  4           0  0  0
   -2.1702   -0.0463    1.0418 C   0  0  0  0  0  4           0  0  0
   -7.0967    0.3162    1.9793 C   0  0  0  0  0  4           0  0  0
   -6.4481    5.8926   -1.6057 C   0  0  0  0  0  4           0  0  0
   -6.0029    7.2147   -1.7071 C   0  0  0  0  0  4           0  0  0
   -8.9554    3.7213   -0.0450 C   0  0  0  0  0  4           0  0  0
    1.9811   -1.1163    0.6445 C   0  0  0  0  0  4           0  0  0
    4.2780   -4.8830   -1.6533 C   0  0  0  0  0  4           0  0  0
   -0.0394    1.2968    2.9809 C   0  0  0  0  0  4           0  0  0
   -9.1506    2.2392   -0.2505 C   0  0  0  0  0  4           0  0  0
    3.1082   -4.3879   -0.7839 C   0  0  0  0  0  4           0  0  0
    4.0589   -4.8938    1.4184 C   0  0  0  0  0  4           0  0  0
    4.0789   -2.5859    0.5878 C   0  0  0  0  0  4           0  0  0
    3.2779   -6.1887    1.7066 C   0  0  1  0  0  4           0  0  0
    3.3202   -1.3958   -0.0267 C   0  0  0  0  0  4           0  0  0
    4.0564   -7.1432    2.6141 C   0  0  0  0  0  4           0  0  0
    1.8935   -5.9083    2.2948 C   0  0  0  0  0  4           0  0  0
  1 14  1  0     0  0
  2 15  1  0     0  0
  3 16  1  0     0  0
  3 32  1  0     0  0
  4 17  1  0     0  0
  4 34  1  0     0  0
  5 31  2  0     0  0
  6 33  1  0     0  0
  7  8  1  0     0  0
  7 22  1  0     0  0
  7 35  1  0     0  0
  8 19  2  0     0  0
  9 18  1  0     0  0
  9 20  2  0     0  0
 10 18  2  0     0  0
 10 21  1  0     0  0
 11 19  1  0     0  0
 11 20  1  0     0  0
 12 23  1  0     0  0
 12 31  1  0     0  0
 13 36  1  0     0  0
 13 37  1  0     0  0
 13 38  1  0     0  0
 14 15  1  0     0  0
 14 23  2  0     0  0
 15 25  2  0     0  0
 16 17  1  0     0  0
 16 26  2  0     0  0
 17 27  2  0     0  0
 19 28  1  0     0  0
 20 24  1  0     0  0
 21 24  2  0     0  0
 21 26  1  0     0  0
 22 28  2  0     0  0
 23 29  1  0     0  0
 24 27  1  0     0  0
 25 30  1  0     0  0
 29 30  2  0     0  0
 31 35  1  0     0  0
 32 40  1  0     0  0
 33 36  1  0     0  0
 37 39  1  0     0  0
 38 40  1  0     0  0
 39 41  1  0     0  0
 39 42  1  0     0  0
M  END
> <standard_type>
pIC50

> <# Confs.>
25

> <canonical_smiles>
O=C(CN(C=C1)N=C1NC2=NC=NC3=C2C=C(OC)C(OCCCN(CC(C)C)CCO)=C3)NC4=C(F)C(F)=CC=C4

> <standard_relation>
=

> <Publication_ID>
nan

> <predicted_activity_value>
8.031517051446064

> <actual_activity_value>
8.096910013008056

> <Compound>
5

> <standard_units>
nM

> hash
13470637940307672993

$$$$
5_
XXILIB    08252103493D 0   0.00000     0.00000

 42 45  0     1  0            999 V2000
   -9.7513    6.4501   -0.1634 F   0  0  0  0  0  1           0  0  0
   -8.8654    8.9830   -0.3610 F   0  0  0  0  0  1           0  0  0
    1.3663    0.0000   -0.0000 O   0  0  0  0  0  2           0  0  0
   -0.2639    0.0061    2.4192 O   0  0  0  0  0  2           0  0  0
   -9.4868    4.3492    0.8677 O   0  0  0  0  0  2           0  0  0
    6.0491   -3.8387   -2.4854 O   0  0  0  0  0  2           0  0  0
   -8.1615    1.4634    0.4636 N   0  0  0  0  0  3           0  0  0
   -7.0027    1.1424   -0.1403 N   0  0  0  0  0  3           0  0  0
   -4.7418   -0.0038   -1.6757 N   0  0  0  0  0  3           0  0  0
   -2.5362    0.0737   -2.6131 N   0  0  0  0  0  3           0  0  0
   -5.0928   -0.1066    0.6806 N   0  0  0  0  0  3           0  0  0
   -8.1014    4.2548   -0.9972 N   0  0  0  0  0  3           0  0  0
    4.0483   -3.4693    0.7037 N   0  0  1  0  0  3           0  0  0
   -8.5275    6.6659   -0.6671 C   0  0  0  0  0  4           0  0  0
   -8.0769    7.9791   -0.7693 C   0  0  0  0  0  4           0  0  0
    0.0000    0.0000    0.0000 C   0  0  0  0  0  4           0  0  0
   -0.7791    0.0000    1.1539 C   0  0  0  0  0  4           0  0  0
   -3.8744    0.0569   -2.6953 C   0  0  0  0  0  4           0  0  0
   -6.3329    0.4399    0.7878 C   0  0  0  0  0  4           0  0  0
   -4.2136   -0.0675   -0.4284 C   0  0  0  0  0  4           0  0  0
   -2.0100    0.0319   -1.3826 C   0  0  0  0  0  4           0  0  0
   -8.2691    0.9886    1.7355 C   0  0  0  0  0  4           0  0  0
   -7.7159    5.6064   -1.0815 C   0  0  0  0  0  4           0  0  0
   -2.8104   -0.0323   -0.2230 C   0  0  0  0  0  4           0  0  0
   -6.8182    8.2629   -1.2864 C   0  0  0  0  0  4           0  0  0
   -0.6238    0.0488   -1.2495 C   0  0  0  0  0  4           0  0  0
   -2.1702   -0.0463    1.0418 C   0  0  0  0  0  4           0  0  0
   -7.0967    0.3162    1.9793 C   0  0  0  0  0  4           0  0  0
   -6.4481    5.8926   -1.6057 C   0  0  0  0  0  4           0  0  0
   -6.0029    7.2147   -1.7071 C   0  0  0  0  0  4           0  0  0
   -8.9554    3.7213   -0.0450 C   0  0  0  0  0  4           0  0  0
    1.9811   -1.1163    0.6445 C   0  0  0  0  0  4           0  0  0
    5.8853   -3.6687   -1.0834 C   0  0  0  0  0  4           0  0  0
   -0.0394    1.2968    2.9809 C   0  0  0  0  0  4           0  0  0
   -9.1506    2.2392   -0.2505 C   0  0  0  0  0  4           0  0  0
    4.3920   -3.6389   -0.7112 C   0  0  0  0  0  4           0  0  0
    4.5725   -4.5250    1.5674 C   0  0  0  0  0  4           0  0  0
    4.2685   -2.1156    1.2214 C   0  0  0  0  0  4           0  0  0
    4.1222   -5.9690    1.2817 C   0  0  1  0  0  4           0  0  0
    3.4946   -0.9632    0.5561 C   0  0  0  0  0  4           0  0  0
    4.7431   -6.9714    2.2566 C   0  0  0  0  0  4           0  0  0
    2.5983   -6.1076    1.2772 C   0  0  0  0  0  4           0  0  0
  1 14  1  0     0  0
  2 15  1  0     0  0
  3 16  1  0     0  0
  3 32  1  0     0  0
  4 17  1  0     0  0
  4 34  1  0     0  0
  5 31  2  0     0  0
  6 33  1  0     0  0
  7  8  1  0     0  0
  7 22  1  0     0  0
  7 35  1  0     0  0
  8 19  2  0     0  0
  9 18  1  0     0  0
  9 20  2  0     0  0
 10 18  2  0     0  0
 10 21  1  0     0  0
 11 19  1  0     0  0
 11 20  1  0     0  0
 12 23  1  0     0  0
 12 31  1  0     0  0
 13 36  1  0     0  0
 13 37  1  0     0  0
 13 38  1  0     0  0
 14 15  1  0     0  0
 14 23  2  0     0  0
 15 25  2  0     0  0
 16 17  1  0     0  0
 16 26  2  0     0  0
 17 27  2  0     0  0
 19 28  1  0     0  0
 20 24  1  0     0  0
 21 24  2  0     0  0
 21 26  1  0     0  0
 22 28  2  0     0  0
 23 29  1  0     0  0
 24 27  1  0     0  0
 25 30  1  0     0  0
 29 30  2  0     0  0
 31 35  1  0     0  0
 32 40  1  0     0  0
 33 36  1  0     0  0
 37 39  1  0     0  0
 38 40  1  0     0  0
 39 41  1  0     0  0
 39 42  1  0     0  0
M  END
> <standard_type>
pIC50

> <# Confs.>
25

> <canonical_smiles>
O=C(CN(C=C1)N=C1NC2=NC=NC3=C2C=C(OC)C(OCCCN(CC(C)C)CCO)=C3)NC4=C(F)C(F)=CC=C4

> <standard_relation>
=

> <Publication_ID>
nan

> <predicted_activity_value>
8.031517051446064

> <actual_activity_value>
8.096910013008056

> <Compound>
5

> <standard_units>
nM

> hash
13470637940307672993

$$$$
5_
XXILIB    08252103493D 0   0.00000     0.00000

 42 45  0     1  0            999 V2000
   -9.7513    6.4501   -0.1634 F   0  0  0  0  0  1           0  0  0
   -8.8654    8.9830   -0.3610 F   0  0  0  0  0  1           0  0  0
    1.3663    0.0000   -0.0000 O   0  0  0  0  0  2           0  0  0
   -0.2639    0.0061    2.4192 O   0  0  0  0  0  2           0  0  0
   -9.4868    4.3492    0.8677 O   0  0  0  0  0  2           0  0  0
    7.3111   -2.1151    2.7300 O   0  0  0  0  0  2           0  0  0
   -8.1615    1.4634    0.4636 N   0  0  0  0  0  3           0  0  0
   -7.0027    1.1424   -0.1403 N   0  0  0  0  0  3           0  0  0
   -4.7418   -0.0038   -1.6757 N   0  0  0  0  0  3           0  0  0
   -2.5362    0.0737   -2.6131 N   0  0  0  0  0  3           0  0  0
   -5.0928   -0.1066    0.6806 N   0  0  0  0  0  3           0  0  0
   -8.1014    4.2548   -0.9972 N   0  0  0  0  0  3           0  0  0
    4.6982    0.2611    1.3748 N   0  0  1  0  0  3           0  0  0
   -8.5275    6.6659   -0.6671 C   0  0  0  0  0  4           0  0  0
   -8.0769    7.9791   -0.7693 C   0  0  0  0  0  4           0  0  0
    0.0000    0.0000    0.0000 C   0  0  0  0  0  4           0  0  0
   -0.7791    0.0000    1.1539 C   0  0  0  0  0  4           0  0  0
   -3.8744    0.0569   -2.6953 C   0  0  0  0  0  4           0  0  0
   -6.3329    0.4399    0.7878 C   0  0  0  0  0  4           0  0  0
   -4.2136   -0.0675   -0.4284 C   0  0  0  0  0  4           0  0  0
   -2.0100    0.0319   -1.3826 C   0  0  0  0  0  4           0  0  0
   -8.2691    0.9886    1.7355 C   0  0  0  0  0  4           0  0  0
   -7.7159    5.6064   -1.0815 C   0  0  0  0  0  4           0  0  0
   -2.8104   -0.0323   -0.2230 C   0  0  0  0  0  4           0  0  0
   -6.8182    8.2629   -1.2864 C   0  0  0  0  0  4           0  0  0
   -0.6238    0.0488   -1.2495 C   0  0  0  0  0  4           0  0  0
   -2.1702   -0.0463    1.0418 C   0  0  0  0  0  4           0  0  0
   -7.0967    0.3162    1.9793 C   0  0  0  0  0  4           0  0  0
   -6.4481    5.8926   -1.6057 C   0  0  0  0  0  4           0  0  0
   -6.0029    7.2147   -1.7071 C   0  0  0  0  0  4           0  0  0
   -8.9554    3.7213   -0.0450 C   0  0  0  0  0  4           0  0  0
    1.9811   -1.1163    0.6445 C   0  0  0  0  0  4           0  0  0
    6.8106   -1.1295    1.8360 C   0  0  0  0  0  4           0  0  0
   -0.0394    1.2968    2.9809 C   0  0  0  0  0  4           0  0  0
   -9.1506    2.2392   -0.2505 C   0  0  0  0  0  4           0  0  0
    5.3650   -0.7484    2.2027 C   0  0  0  0  0  4           0  0  0
    5.3774    1.5549    1.3633 C   0  0  0  0  0  4           0  0  0
    4.3023   -0.2127    0.0452 C   0  0  0  0  0  4           0  0  0
    5.5487    2.2821    2.7091 C   0  0  1  0  0  4           0  0  0
    3.3202   -1.3958   -0.0267 C   0  0  0  0  0  4           0  0  0
    6.2734    3.6206    2.5545 C   0  0  0  0  0  4           0  0  0
    4.2142    2.4816    3.4307 C   0  0  0  0  0  4           0  0  0
  1 14  1  0     0  0
  2 15  1  0     0  0
  3 16  1  0     0  0
  3 32  1  0     0  0
  4 17  1  0     0  0
  4 34  1  0     0  0
  5 31  2  0     0  0
  6 33  1  0     0  0
  7  8  1  0     0  0
  7 22  1  0     0  0
  7 35  1  0     0  0
  8 19  2  0     0  0
  9 18  1  0     0  0
  9 20  2  0     0  0
 10 18  2  0     0  0
 10 21  1  0     0  0
 11 19  1  0     0  0
 11 20  1  0     0  0
 12 23  1  0     0  0
 12 31  1  0     0  0
 13 36  1  0     0  0
 13 37  1  0     0  0
 13 38  1  0     0  0
 14 15  1  0     0  0
 14 23  2  0     0  0
 15 25  2  0     0  0
 16 17  1  0     0  0
 16 26  2  0     0  0
 17 27  2  0     0  0
 19 28  1  0     0  0
 20 24  1  0     0  0
 21 24  2  0     0  0
 21 26  1  0     0  0
 22 28  2  0     0  0
 23 29  1  0     0  0
 24 27  1  0     0  0
 25 30  1  0     0  0
 29 30  2  0     0  0
 31 35  1  0     0  0
 32 40  1  0     0  0
 33 36  1  0     0  0
 37 39  1  0     0  0
 38 40  1  0     0  0
 39 41  1  0     0  0
 39 42  1  0     0  0
M  END
> <standard_type>
pIC50

> <# Confs.>
25

> <canonical_smiles>
O=C(CN(C=C1)N=C1NC2=NC=NC3=C2C=C(OC)C(OCCCN(CC(C)C)CCO)=C3)NC4=C(F)C(F)=CC=C4

> <standard_relation>
=

> <Publication_ID>
nan

> <predicted_activity_value>
8.031517051446064

> <actual_activity_value>
8.096910013008056

> <Compound>
5

> <standard_units>
nM

> hash
13470637940307672993

$$$$
5_
XXILIB    08252103493D 0   0.00000     0.00000

 42 45  0     1  0            999 V2000
   -9.7513    6.4501   -0.1634 F   0  0  0  0  0  1           0  0  0
   -8.8654    8.9830   -0.3610 F   0  0  0  0  0  1           0  0  0
    1.3663   -0.0000   -0.0000 O   0  0  0  0  0  2           0  0  0
   -0.2639    0.0061    2.4192 O   0  0  0  0  0  2           0  0  0
   -9.4868    4.3492    0.8677 O   0  0  0  0  0  2           0  0  0
    5.2200    0.0491   -4.3102 O   0  0  0  0  0  2           0  0  0
   -8.1615    1.4634    0.4636 N   0  0  0  0  0  3           0  0  0
   -7.0027    1.1424   -0.1403 N   0  0  0  0  0  3           0  0  0
   -4.7418   -0.0038   -1.6757 N   0  0  0  0  0  3           0  0  0
   -2.5362    0.0737   -2.6131 N   0  0  0  0  0  3           0  0  0
   -5.0928   -0.1066    0.6806 N   0  0  0  0  0  3           0  0  0
   -8.1014    4.2548   -0.9972 N   0  0  0  0  0  3           0  0  0
    5.6199   -0.3856   -0.5737 N   0  0  1  0  0  3           0  0  0
   -8.5275    6.6659   -0.6671 C   0  0  0  0  0  4           0  0  0
   -8.0769    7.9791   -0.7693 C   0  0  0  0  0  4           0  0  0
    0.0000    0.0000    0.0000 C   0  0  0  0  0  4           0  0  0
   -0.7791    0.0000    1.1539 C   0  0  0  0  0  4           0  0  0
   -3.8744    0.0569   -2.6953 C   0  0  0  0  0  4           0  0  0
   -6.3329    0.4399    0.7878 C   0  0  0  0  0  4           0  0  0
   -4.2136   -0.0675   -0.4284 C   0  0  0  0  0  4           0  0  0
   -2.0100    0.0319   -1.3826 C   0  0  0  0  0  4           0  0  0
   -8.2691    0.9886    1.7355 C   0  0  0  0  0  4           0  0  0
   -7.7159    5.6064   -1.0815 C   0  0  0  0  0  4           0  0  0
   -2.8104   -0.0323   -0.2230 C   0  0  0  0  0  4           0  0  0
   -6.8182    8.2629   -1.2864 C   0  0  0  0  0  4           0  0  0
   -0.6238    0.0488   -1.2495 C   0  0  0  0  0  4           0  0  0
   -2.1702   -0.0463    1.0418 C   0  0  0  0  0  4           0  0  0
   -7.0967    0.3162    1.9793 C   0  0  0  0  0  4           0  0  0
   -6.4481    5.8926   -1.6057 C   0  0  0  0  0  4           0  0  0
   -6.0029    7.2147   -1.7071 C   0  0  0  0  0  4           0  0  0
   -8.9554    3.7213   -0.0450 C   0  0  0  0  0  4           0  0  0
    1.9811   -1.1163    0.6445 C   0  0  0  0  0  4           0  0  0
    5.2147    0.4869   -2.9576 C   0  0  0  0  0  4           0  0  0
   -0.0394    1.2968    2.9809 C   0  0  0  0  0  4           0  0  0
   -9.1506    2.2392   -0.2505 C   0  0  0  0  0  4           0  0  0
    5.5802   -0.6707   -2.0111 C   0  0  0  0  0  4           0  0  0
    6.5862    0.6467   -0.2050 C   0  0  0  0  0  4           0  0  0
    4.3023   -0.2127    0.0452 C   0  0  0  0  0  4           0  0  0
    8.0667    0.3893   -0.5388 C   0  0  1  0  0  4           0  0  0
    3.3202   -1.3958   -0.0267 C   0  0  0  0  0  4           0  0  0
    8.9674    1.5457   -0.1003 C   0  0  0  0  0  4           0  0  0
    8.5703   -0.9291    0.0523 C   0  0  0  0  0  4           0  0  0
  1 14  1  0     0  0
  2 15  1  0     0  0
  3 16  1  0     0  0
  3 32  1  0     0  0
  4 17  1  0     0  0
  4 34  1  0     0  0
  5 31  2  0     0  0
  6 33  1  0     0  0
  7  8  1  0     0  0
  7 22  1  0     0  0
  7 35  1  0     0  0
  8 19  2  0     0  0
  9 18  1  0     0  0
  9 20  2  0     0  0
 10 18  2  0     0  0
 10 21  1  0     0  0
 11 19  1  0     0  0
 11 20  1  0     0  0
 12 23  1  0     0  0
 12 31  1  0     0  0
 13 36  1  0     0  0
 13 37  1  0     0  0
 13 38  1  0     0  0
 14 15  1  0     0  0
 14 23  2  0     0  0
 15 25  2  0     0  0
 16 17  1  0     0  0
 16 26  2  0     0  0
 17 27  2  0     0  0
 19 28  1  0     0  0
 20 24  1  0     0  0
 21 24  2  0     0  0
 21 26  1  0     0  0
 22 28  2  0     0  0
 23 29  1  0     0  0
 24 27  1  0     0  0
 25 30  1  0     0  0
 29 30  2  0     0  0
 31 35  1  0     0  0
 32 40  1  0     0  0
 33 36  1  0     0  0
 37 39  1  0     0  0
 38 40  1  0     0  0
 39 41  1  0     0  0
 39 42  1  0     0  0
M  END
> <standard_type>
pIC50

> <# Confs.>
25

> <canonical_smiles>
O=C(CN(C=C1)N=C1NC2=NC=NC3=C2C=C(OC)C(OCCCN(CC(C)C)CCO)=C3)NC4=C(F)C(F)=CC=C4

> <standard_relation>
=

> <Publication_ID>
nan

> <predicted_activity_value>
8.031517051446064

> <actual_activity_value>
8.096910013008056

> <Compound>
5

> <standard_units>
nM

> hash
13470637940307672993

$$$$
5_
XXILIB    08252103493D 0   0.00000     0.00000

 42 45  0     1  0            999 V2000
   -9.7513    6.4501   -0.1634 F   0  0  0  0  0  1           0  0  0
   -8.8654    8.9830   -0.3610 F   0  0  0  0  0  1           0  0  0
    1.3663   -0.0000   -0.0000 O   0  0  0  0  0  2           0  0  0
   -0.2639    0.0061    2.4192 O   0  0  0  0  0  2           0  0  0
   -9.4868    4.3492    0.8677 O   0  0  0  0  0  2           0  0  0
    5.4773   -5.5591   -1.4613 O   0  0  0  0  0  2           0  0  0
   -8.1615    1.4634    0.4636 N   0  0  0  0  0  3           0  0  0
   -7.0027    1.1424   -0.1403 N   0  0  0  0  0  3           0  0  0
   -4.7418   -0.0038   -1.6757 N   0  0  0  0  0  3           0  0  0
   -2.5362    0.0737   -2.6131 N   0  0  0  0  0  3           0  0  0
   -5.0928   -0.1066    0.6806 N   0  0  0  0  0  3           0  0  0
   -8.1014    4.2548   -0.9972 N   0  0  0  0  0  3           0  0  0
    4.4355   -2.0113   -2.2596 N   0  0  1  0  0  3           0  0  0
   -8.5275    6.6659   -0.6671 C   0  0  0  0  0  4           0  0  0
   -8.0769    7.9791   -0.7693 C   0  0  0  0  0  4           0  0  0
    0.0000    0.0000    0.0000 C   0  0  0  0  0  4           0  0  0
   -0.7791    0.0000    1.1539 C   0  0  0  0  0  4           0  0  0
   -3.8744    0.0569   -2.6953 C   0  0  0  0  0  4           0  0  0
   -6.3329    0.4399    0.7878 C   0  0  0  0  0  4           0  0  0
   -4.2136   -0.0675   -0.4284 C   0  0  0  0  0  4           0  0  0
   -2.0100    0.0319   -1.3826 C   0  0  0  0  0  4           0  0  0
   -8.2691    0.9886    1.7355 C   0  0  0  0  0  4           0  0  0
   -7.7159    5.6064   -1.0815 C   0  0  0  0  0  4           0  0  0
   -2.8104   -0.0323   -0.2230 C   0  0  0  0  0  4           0  0  0
   -6.8182    8.2629   -1.2864 C   0  0  0  0  0  4           0  0  0
   -0.6238    0.0488   -1.2495 C   0  0  0  0  0  4           0  0  0
   -2.1702   -0.0463    1.0418 C   0  0  0  0  0  4           0  0  0
   -7.0967    0.3162    1.9793 C   0  0  0  0  0  4           0  0  0
   -6.4481    5.8926   -1.6057 C   0  0  0  0  0  4           0  0  0
   -6.0029    7.2147   -1.7071 C   0  0  0  0  0  4           0  0  0
   -8.9554    3.7213   -0.0450 C   0  0  0  0  0  4           0  0  0
    1.9811   -1.1163    0.6445 C   0  0  0  0  0  4           0  0  0
    4.6304   -4.5634   -2.0201 C   0  0  0  0  0  4           0  0  0
   -0.0394    1.2968    2.9809 C   0  0  0  0  0  4           0  0  0
   -9.1506    2.2392   -0.2505 C   0  0  0  0  0  4           0  0  0
    5.1933   -3.1569   -1.7475 C   0  0  0  0  0  4           0  0  0
    4.2728   -2.0151   -3.7118 C   0  0  0  0  0  4           0  0  0
    3.1991   -1.7270   -1.5251 C   0  0  0  0  0  4           0  0  0
    5.5488   -1.9871   -4.5722 C   0  0  1  0  0  4           0  0  0
    3.3202   -1.3958   -0.0267 C   0  0  0  0  0  4           0  0  0
    5.2362   -1.9942   -6.0699 C   0  0  0  0  0  4           0  0  0
    6.4529   -0.8026   -4.2246 C   0  0  0  0  0  4           0  0  0
  1 14  1  0     0  0
  2 15  1  0     0  0
  3 16  1  0     0  0
  3 32  1  0     0  0
  4 17  1  0     0  0
  4 34  1  0     0  0
  5 31  2  0     0  0
  6 33  1  0     0  0
  7  8  1  0     0  0
  7 22  1  0     0  0
  7 35  1  0     0  0
  8 19  2  0     0  0
  9 18  1  0     0  0
  9 20  2  0     0  0
 10 18  2  0     0  0
 10 21  1  0     0  0
 11 19  1  0     0  0
 11 20  1  0     0  0
 12 23  1  0     0  0
 12 31  1  0     0  0
 13 36  1  0     0  0
 13 37  1  0     0  0
 13 38  1  0     0  0
 14 15  1  0     0  0
 14 23  2  0     0  0
 15 25  2  0     0  0
 16 17  1  0     0  0
 16 26  2  0     0  0
 17 27  2  0     0  0
 19 28  1  0     0  0
 20 24  1  0     0  0
 21 24  2  0     0  0
 21 26  1  0     0  0
 22 28  2  0     0  0
 23 29  1  0     0  0
 24 27  1  0     0  0
 25 30  1  0     0  0
 29 30  2  0     0  0
 31 35  1  0     0  0
 32 40  1  0     0  0
 33 36  1  0     0  0
 37 39  1  0     0  0
 38 40  1  0     0  0
 39 41  1  0     0  0
 39 42  1  0     0  0
M  END
> <standard_type>
pIC50

> <# Confs.>
25

> <canonical_smiles>
O=C(CN(C=C1)N=C1NC2=NC=NC3=C2C=C(OC)C(OCCCN(CC(C)C)CCO)=C3)NC4=C(F)C(F)=CC=C4

> <standard_relation>
=

> <Publication_ID>
nan

> <predicted_activity_value>
8.031517051446064

> <actual_activity_value>
8.096910013008056

> <Compound>
5

> <standard_units>
nM

> hash
13470637940307672993

$$$$
5_
XXILIB    08252103493D 0   0.00000     0.00000

 42 45  0     1  0            999 V2000
   -9.7513    6.4501   -0.1634 F   0  0  0  0  0  1           0  0  0
   -8.8654    8.9830   -0.3610 F   0  0  0  0  0  1           0  0  0
    1.3663   -0.0000   -0.0000 O   0  0  0  0  0  2           0  0  0
   -0.2639    0.0061    2.4192 O   0  0  0  0  0  2           0  0  0
   -9.4868    4.3492    0.8677 O   0  0  0  0  0  2           0  0  0
    5.9390    1.4486   -2.5401 O   0  0  0  0  0  2           0  0  0
   -8.1615    1.4634    0.4636 N   0  0  0  0  0  3           0  0  0
   -7.0027    1.1424   -0.1403 N   0  0  0  0  0  3           0  0  0
   -4.7418   -0.0038   -1.6757 N   0  0  0  0  0  3           0  0  0
   -2.5362    0.0737   -2.6131 N   0  0  0  0  0  3           0  0  0
   -5.0928   -0.1066    0.6806 N   0  0  0  0  0  3           0  0  0
   -8.1014    4.2548   -0.9972 N   0  0  0  0  0  3           0  0  0
    4.4355   -2.0113   -2.2596 N   0  0  1  0  0  3           0  0  0
   -8.5275    6.6659   -0.6671 C   0  0  0  0  0  4           0  0  0
   -8.0769    7.9791   -0.7693 C   0  0  0  0  0  4           0  0  0
    0.0000    0.0000    0.0000 C   0  0  0  0  0  4           0  0  0
   -0.7791    0.0000    1.1539 C   0  0  0  0  0  4           0  0  0
   -3.8744    0.0569   -2.6953 C   0  0  0  0  0  4           0  0  0
   -6.3329    0.4399    0.7878 C   0  0  0  0  0  4           0  0  0
   -4.2136   -0.0675   -0.4284 C   0  0  0  0  0  4           0  0  0
   -2.0100    0.0319   -1.3826 C   0  0  0  0  0  4           0  0  0
   -8.2691    0.9886    1.7355 C   0  0  0  0  0  4           0  0  0
   -7.7159    5.6064   -1.0815 C   0  0  0  0  0  4           0  0  0
   -2.8104   -0.0323   -0.2230 C   0  0  0  0  0  4           0  0  0
   -6.8182    8.2629   -1.2864 C   0  0  0  0  0  4           0  0  0
   -0.6238    0.0488   -1.2495 C   0  0  0  0  0  4           0  0  0
   -2.1702   -0.0463    1.0418 C   0  0  0  0  0  4           0  0  0
   -7.0967    0.3162    1.9793 C   0  0  0  0  0  4           0  0  0
   -6.4481    5.8926   -1.6057 C   0  0  0  0  0  4           0  0  0
   -6.0029    7.2147   -1.7071 C   0  0  0  0  0  4           0  0  0
   -8.9554    3.7213   -0.0450 C   0  0  0  0  0  4           0  0  0
    1.9811   -1.1163    0.6445 C   0  0  0  0  0  4           0  0  0
    4.8805    0.5004   -2.5791 C   0  0  0  0  0  4           0  0  0
   -0.0394    1.2968    2.9809 C   0  0  0  0  0  4           0  0  0
   -9.1506    2.2392   -0.2505 C   0  0  0  0  0  4           0  0  0
    5.4047   -0.9115   -2.2608 C   0  0  0  0  0  4           0  0  0
    5.0224   -3.3126   -1.9477 C   0  0  0  0  0  4           0  0  0
    3.1991   -1.7270   -1.5251 C   0  0  0  0  0  4           0  0  0
    6.1278   -3.8383   -2.8811 C   0  0  1  0  0  4           0  0  0
    3.3202   -1.3958   -0.0267 C   0  0  0  0  0  4           0  0  0
    6.6531   -5.2063   -2.4414 C   0  0  0  0  0  4           0  0  0
    5.6738   -3.8887   -4.3414 C   0  0  0  0  0  4           0  0  0
  1 14  1  0     0  0
  2 15  1  0     0  0
  3 16  1  0     0  0
  3 32  1  0     0  0
  4 17  1  0     0  0
  4 34  1  0     0  0
  5 31  2  0     0  0
  6 33  1  0     0  0
  7  8  1  0     0  0
  7 22  1  0     0  0
  7 35  1  0     0  0
  8 19  2  0     0  0
  9 18  1  0     0  0
  9 20  2  0     0  0
 10 18  2  0     0  0
 10 21  1  0     0  0
 11 19  1  0     0  0
 11 20  1  0     0  0
 12 23  1  0     0  0
 12 31  1  0     0  0
 13 36  1  0     0  0
 13 37  1  0     0  0
 13 38  1  0     0  0
 14 15  1  0     0  0
 14 23  2  0     0  0
 15 25  2  0     0  0
 16 17  1  0     0  0
 16 26  2  0     0  0
 17 27  2  0     0  0
 19 28  1  0     0  0
 20 24  1  0     0  0
 21 24  2  0     0  0
 21 26  1  0     0  0
 22 28  2  0     0  0
 23 29  1  0     0  0
 24 27  1  0     0  0
 25 30  1  0     0  0
 29 30  2  0     0  0
 31 35  1  0     0  0
 32 40  1  0     0  0
 33 36  1  0     0  0
 37 39  1  0     0  0
 38 40  1  0     0  0
 39 41  1  0     0  0
 39 42  1  0     0  0
M  END
> <standard_type>
pIC50

> <# Confs.>
25

> <canonical_smiles>
O=C(CN(C=C1)N=C1NC2=NC=NC3=C2C=C(OC)C(OCCCN(CC(C)C)CCO)=C3)NC4=C(F)C(F)=CC=C4

> <standard_relation>
=

> <Publication_ID>
nan

> <predicted_activity_value>
8.031517051446064

> <actual_activity_value>
8.096910013008056

> <Compound>
5

> <standard_units>
nM

> hash
13470637940307672993

$$$$
5_
XXILIB    08252103493D 0   0.00000     0.00000

 42 45  0     1  0            999 V2000
   -9.7513    6.4501   -0.1634 F   0  0  0  0  0  1           0  0  0
   -8.8654    8.9830   -0.3610 F   0  0  0  0  0  1           0  0  0
    1.3663   -0.0000   -0.0000 O   0  0  0  0  0  2           0  0  0
   -0.2639    0.0061    2.4192 O   0  0  0  0  0  2           0  0  0
   -9.4868    4.3492    0.8677 O   0  0  0  0  0  2           0  0  0
    4.3318   -4.5262   -3.2584 O   0  0  0  0  0  2           0  0  0
   -8.1615    1.4634    0.4636 N   0  0  0  0  0  3           0  0  0
   -7.0027    1.1424   -0.1403 N   0  0  0  0  0  3           0  0  0
   -4.7418   -0.0038   -1.6757 N   0  0  0  0  0  3           0  0  0
   -2.5362    0.0737   -2.6131 N   0  0  0  0  0  3           0  0  0
   -5.0928   -0.1066    0.6806 N   0  0  0  0  0  3           0  0  0
   -8.1014    4.2548   -0.9972 N   0  0  0  0  0  3           0  0  0
    5.3801   -2.9334    0.0088 N   0  0  1  0  0  3           0  0  0
   -8.5275    6.6659   -0.6671 C   0  0  0  0  0  4           0  0  0
   -8.0769    7.9791   -0.7693 C   0  0  0  0  0  4           0  0  0
    0.0000    0.0000    0.0000 C   0  0  0  0  0  4           0  0  0
   -0.7791    0.0000    1.1539 C   0  0  0  0  0  4           0  0  0
   -3.8744    0.0569   -2.6953 C   0  0  0  0  0  4           0  0  0
   -6.3329    0.4399    0.7878 C   0  0  0  0  0  4           0  0  0
   -4.2136   -0.0675   -0.4284 C   0  0  0  0  0  4           0  0  0
   -2.0100    0.0319   -1.3826 C   0  0  0  0  0  4           0  0  0
   -8.2691    0.9886    1.7355 C   0  0  0  0  0  4           0  0  0
   -7.7159    5.6064   -1.0815 C   0  0  0  0  0  4           0  0  0
   -2.8104   -0.0323   -0.2230 C   0  0  0  0  0  4           0  0  0
   -6.8182    8.2629   -1.2864 C   0  0  0  0  0  4           0  0  0
   -0.6238    0.0488   -1.2495 C   0  0  0  0  0  4           0  0  0
   -2.1702   -0.0463    1.0418 C   0  0  0  0  0  4           0  0  0
   -7.0967    0.3162    1.9793 C   0  0  0  0  0  4           0  0  0
   -6.4481    5.8926   -1.6057 C   0  0  0  0  0  4           0  0  0
   -6.0029    7.2147   -1.7071 C   0  0  0  0  0  4           0  0  0
   -8.9554    3.7213   -0.0450 C   0  0  0  0  0  4           0  0  0
    1.9811   -1.1163    0.6445 C   0  0  0  0  0  4           0  0  0
    4.2423   -4.2821   -1.8607 C   0  0  0  0  0  4           0  0  0
   -0.0394    1.2968    2.9809 C   0  0  0  0  0  4           0  0  0
   -9.1506    2.2392   -0.2505 C   0  0  0  0  0  4           0  0  0
    5.3332   -3.2934   -1.4115 C   0  0  0  0  0  4           0  0  0
    6.4461   -1.9912    0.3423 C   0  0  0  0  0  4           0  0  0
    4.0789   -2.5859    0.5878 C   0  0  0  0  0  4           0  0  0
    7.8953   -2.4240    0.0561 C   0  0  1  0  0  4           0  0  0
    3.3202   -1.3958   -0.0267 C   0  0  0  0  0  4           0  0  0
    8.9084   -1.3478    0.4511 C   0  0  0  0  0  4           0  0  0
    8.2437   -3.7532    0.7292 C   0  0  0  0  0  4           0  0  0
  1 14  1  0     0  0
  2 15  1  0     0  0
  3 16  1  0     0  0
  3 32  1  0     0  0
  4 17  1  0     0  0
  4 34  1  0     0  0
  5 31  2  0     0  0
  6 33  1  0     0  0
  7  8  1  0     0  0
  7 22  1  0     0  0
  7 35  1  0     0  0
  8 19  2  0     0  0
  9 18  1  0     0  0
  9 20  2  0     0  0
 10 18  2  0     0  0
 10 21  1  0     0  0
 11 19  1  0     0  0
 11 20  1  0     0  0
 12 23  1  0     0  0
 12 31  1  0     0  0
 13 36  1  0     0  0
 13 37  1  0     0  0
 13 38  1  0     0  0
 14 15  1  0     0  0
 14 23  2  0     0  0
 15 25  2  0     0  0
 16 17  1  0     0  0
 16 26  2  0     0  0
 17 27  2  0     0  0
 19 28  1  0     0  0
 20 24  1  0     0  0
 21 24  2  0     0  0
 21 26  1  0     0  0
 22 28  2  0     0  0
 23 29  1  0     0  0
 24 27  1  0     0  0
 25 30  1  0     0  0
 29 30  2  0     0  0
 31 35  1  0     0  0
 32 40  1  0     0  0
 33 36  1  0     0  0
 37 39  1  0     0  0
 38 40  1  0     0  0
 39 41  1  0     0  0
 39 42  1  0     0  0
M  END
> <standard_type>
pIC50

> <# Confs.>
25

> <canonical_smiles>
O=C(CN(C=C1)N=C1NC2=NC=NC3=C2C=C(OC)C(OCCCN(CC(C)C)CCO)=C3)NC4=C(F)C(F)=CC=C4

> <standard_relation>
=

> <Publication_ID>
nan

> <predicted_activity_value>
8.031517051446064

> <actual_activity_value>
8.096910013008056

> <Compound>
5

> <standard_units>
nM

> hash
13470637940307672993

$$$$
5_
XXILIB    08252103493D 0   0.00000     0.00000

 42 45  0     1  0            999 V2000
   -9.7513    6.4501   -0.1634 F   0  0  0  0  0  1           0  0  0
   -8.8654    8.9830   -0.3610 F   0  0  0  0  0  1           0  0  0
    1.3663    0.0000    0.0000 O   0  0  0  0  0  2           0  0  0
   -0.2639    0.0061    2.4192 O   0  0  0  0  0  2           0  0  0
   -9.4868    4.3492    0.8677 O   0  0  0  0  0  2           0  0  0
    7.9407   -0.4887    1.3416 O   0  0  0  0  0  2           0  0  0
   -8.1615    1.4634    0.4636 N   0  0  0  0  0  3           0  0  0
   -7.0027    1.1424   -0.1403 N   0  0  0  0  0  3           0  0  0
   -4.7418   -0.0038   -1.6757 N   0  0  0  0  0  3           0  0  0
   -2.5362    0.0737   -2.6131 N   0  0  0  0  0  3           0  0  0
   -5.0928   -0.1066    0.6806 N   0  0  0  0  0  3           0  0  0
   -8.1014    4.2548   -0.9972 N   0  0  0  0  0  3           0  0  0
    5.3801   -2.9334    0.0088 N   0  0  1  0  0  3           0  0  0
   -8.5275    6.6659   -0.6671 C   0  0  0  0  0  4           0  0  0
   -8.0769    7.9791   -0.7693 C   0  0  0  0  0  4           0  0  0
    0.0000    0.0000    0.0000 C   0  0  0  0  0  4           0  0  0
   -0.7791    0.0000    1.1539 C   0  0  0  0  0  4           0  0  0
   -3.8744    0.0569   -2.6953 C   0  0  0  0  0  4           0  0  0
   -6.3329    0.4399    0.7878 C   0  0  0  0  0  4           0  0  0
   -4.2136   -0.0675   -0.4284 C   0  0  0  0  0  4           0  0  0
   -2.0100    0.0319   -1.3826 C   0  0  0  0  0  4           0  0  0
   -8.2691    0.9886    1.7355 C   0  0  0  0  0  4           0  0  0
   -7.7159    5.6064   -1.0815 C   0  0  0  0  0  4           0  0  0
   -2.8104   -0.0323   -0.2230 C   0  0  0  0  0  4           0  0  0
   -6.8182    8.2629   -1.2864 C   0  0  0  0  0  4           0  0  0
   -0.6238    0.0488   -1.2495 C   0  0  0  0  0  4           0  0  0
   -2.1702   -0.0463    1.0418 C   0  0  0  0  0  4           0  0  0
   -7.0967    0.3162    1.9793 C   0  0  0  0  0  4           0  0  0
   -6.4481    5.8926   -1.6057 C   0  0  0  0  0  4           0  0  0
   -6.0029    7.2147   -1.7071 C   0  0  0  0  0  4           0  0  0
   -8.9554    3.7213   -0.0450 C   0  0  0  0  0  4           0  0  0
    1.9811   -1.1163    0.6445 C   0  0  0  0  0  4           0  0  0
    6.9981   -1.5476    1.4476 C   0  0  0  0  0  4           0  0  0
   -0.0394    1.2968    2.9809 C   0  0  0  0  0  4           0  0  0
   -9.1506    2.2392   -0.2505 C   0  0  0  0  0  4           0  0  0
    6.3771   -1.8607    0.0743 C   0  0  0  0  0  4           0  0  0
    5.8878   -4.2356    0.4350 C   0  0  0  0  0  4           0  0  0
    4.0789   -2.5859    0.5878 C   0  0  0  0  0  4           0  0  0
    7.0736   -4.8291   -0.3469 C   0  0  1  0  0  4           0  0  0
    3.3202   -1.3958   -0.0267 C   0  0  0  0  0  4           0  0  0
    7.5038   -6.1909    0.2018 C   0  0  0  0  0  4           0  0  0
    6.7838   -4.9286   -1.8460 C   0  0  0  0  0  4           0  0  0
  1 14  1  0     0  0
  2 15  1  0     0  0
  3 16  1  0     0  0
  3 32  1  0     0  0
  4 17  1  0     0  0
  4 34  1  0     0  0
  5 31  2  0     0  0
  6 33  1  0     0  0
  7  8  1  0     0  0
  7 22  1  0     0  0
  7 35  1  0     0  0
  8 19  2  0     0  0
  9 18  1  0     0  0
  9 20  2  0     0  0
 10 18  2  0     0  0
 10 21  1  0     0  0
 11 19  1  0     0  0
 11 20  1  0     0  0
 12 23  1  0     0  0
 12 31  1  0     0  0
 13 36  1  0     0  0
 13 37  1  0     0  0
 13 38  1  0     0  0
 14 15  1  0     0  0
 14 23  2  0     0  0
 15 25  2  0     0  0
 16 17  1  0     0  0
 16 26  2  0     0  0
 17 27  2  0     0  0
 19 28  1  0     0  0
 20 24  1  0     0  0
 21 24  2  0     0  0
 21 26  1  0     0  0
 22 28  2  0     0  0
 23 29  1  0     0  0
 24 27  1  0     0  0
 25 30  1  0     0  0
 29 30  2  0     0  0
 31 35  1  0     0  0
 32 40  1  0     0  0
 33 36  1  0     0  0
 37 39  1  0     0  0
 38 40  1  0     0  0
 39 41  1  0     0  0
 39 42  1  0     0  0
M  END
> <standard_type>
pIC50

> <# Confs.>
25

> <canonical_smiles>
O=C(CN(C=C1)N=C1NC2=NC=NC3=C2C=C(OC)C(OCCCN(CC(C)C)CCO)=C3)NC4=C(F)C(F)=CC=C4

> <standard_relation>
=

> <Publication_ID>
nan

> <predicted_activity_value>
8.031517051446064

> <actual_activity_value>
8.096910013008056

> <Compound>
5

> <standard_units>
nM

> hash
13470637940307672993

$$$$
5_
XXILIB    08252103493D 0   0.00000     0.00000

 42 45  0     1  0            999 V2000
   -9.7513    6.4501   -0.1634 F   0  0  0  0  0  1           0  0  0
   -8.8654    8.9830   -0.3610 F   0  0  0  0  0  1           0  0  0
    1.3663    0.0000   -0.0000 O   0  0  0  0  0  2           0  0  0
   -0.2639    0.0061    2.4192 O   0  0  0  0  0  2           0  0  0
   -9.4868    4.3492    0.8677 O   0  0  0  0  0  2           0  0  0
    1.3634   -6.1984   -2.1026 O   0  0  0  0  0  2           0  0  0
   -8.1615    1.4634    0.4636 N   0  0  0  0  0  3           0  0  0
   -7.0027    1.1424   -0.1403 N   0  0  0  0  0  3           0  0  0
   -4.7418   -0.0038   -1.6757 N   0  0  0  0  0  3           0  0  0
   -2.5362    0.0737   -2.6131 N   0  0  0  0  0  3           0  0  0
   -5.0928   -0.1066    0.6806 N   0  0  0  0  0  3           0  0  0
   -8.1014    4.2548   -0.9972 N   0  0  0  0  0  3           0  0  0
    2.7284   -4.1557    0.7739 N   0  0  1  0  0  3           0  0  0
   -8.5275    6.6659   -0.6671 C   0  0  0  0  0  4           0  0  0
   -8.0769    7.9791   -0.7693 C   0  0  0  0  0  4           0  0  0
    0.0000    0.0000    0.0000 C   0  0  0  0  0  4           0  0  0
   -0.7791    0.0000    1.1539 C   0  0  0  0  0  4           0  0  0
   -3.8744    0.0569   -2.6953 C   0  0  0  0  0  4           0  0  0
   -6.3329    0.4399    0.7878 C   0  0  0  0  0  4           0  0  0
   -4.2136   -0.0675   -0.4284 C   0  0  0  0  0  4           0  0  0
   -2.0100    0.0319   -1.3826 C   0  0  0  0  0  4           0  0  0
   -8.2691    0.9886    1.7355 C   0  0  0  0  0  4           0  0  0
   -7.7159    5.6064   -1.0815 C   0  0  0  0  0  4           0  0  0
   -2.8104   -0.0323   -0.2230 C   0  0  0  0  0  4           0  0  0
   -6.8182    8.2629   -1.2864 C   0  0  0  0  0  4           0  0  0
   -0.6238    0.0488   -1.2495 C   0  0  0  0  0  4           0  0  0
   -2.1702   -0.0463    1.0418 C   0  0  0  0  0  4           0  0  0
   -7.0967    0.3162    1.9793 C   0  0  0  0  0  4           0  0  0
   -6.4481    5.8926   -1.6057 C   0  0  0  0  0  4           0  0  0
   -6.0029    7.2147   -1.7071 C   0  0  0  0  0  4           0  0  0
   -8.9554    3.7213   -0.0450 C   0  0  0  0  0  4           0  0  0
    1.9811   -1.1163    0.6445 C   0  0  0  0  0  4           0  0  0
    2.3893   -5.6945   -1.2573 C   0  0  0  0  0  4           0  0  0
   -0.0394    1.2968    2.9809 C   0  0  0  0  0  4           0  0  0
   -9.1506    2.2392   -0.2505 C   0  0  0  0  0  4           0  0  0
    1.7990   -4.7625   -0.1838 C   0  0  0  0  0  4           0  0  0
    3.4726   -5.1295    1.5695 C   0  0  0  0  0  4           0  0  0
    3.5610   -3.0867    0.2143 C   0  0  0  0  0  4           0  0  0
    2.6632   -6.0970    2.4518 C   0  0  1  0  0  4           0  0  0
    2.8438   -1.8565   -0.3702 C   0  0  0  0  0  4           0  0  0
    3.5627   -7.0601    3.2290 C   0  0  0  0  0  4           0  0  0
    1.7257   -5.3575    3.4086 C   0  0  0  0  0  4           0  0  0
  1 14  1  0     0  0
  2 15  1  0     0  0
  3 16  1  0     0  0
  3 32  1  0     0  0
  4 17  1  0     0  0
  4 34  1  0     0  0
  5 31  2  0     0  0
  6 33  1  0     0  0
  7  8  1  0     0  0
  7 22  1  0     0  0
  7 35  1  0     0  0
  8 19  2  0     0  0
  9 18  1  0     0  0
  9 20  2  0     0  0
 10 18  2  0     0  0
 10 21  1  0     0  0
 11 19  1  0     0  0
 11 20  1  0     0  0
 12 23  1  0     0  0
 12 31  1  0     0  0
 13 36  1  0     0  0
 13 37  1  0     0  0
 13 38  1  0     0  0
 14 15  1  0     0  0
 14 23  2  0     0  0
 15 25  2  0     0  0
 16 17  1  0     0  0
 16 26  2  0     0  0
 17 27  2  0     0  0
 19 28  1  0     0  0
 20 24  1  0     0  0
 21 24  2  0     0  0
 21 26  1  0     0  0
 22 28  2  0     0  0
 23 29  1  0     0  0
 24 27  1  0     0  0
 25 30  1  0     0  0
 29 30  2  0     0  0
 31 35  1  0     0  0
 32 40  1  0     0  0
 33 36  1  0     0  0
 37 39  1  0     0  0
 38 40  1  0     0  0
 39 41  1  0     0  0
 39 42  1  0     0  0
M  END
> <standard_type>
pIC50

> <# Confs.>
25

> <canonical_smiles>
O=C(CN(C=C1)N=C1NC2=NC=NC3=C2C=C(OC)C(OCCCN(CC(C)C)CCO)=C3)NC4=C(F)C(F)=CC=C4

> <standard_relation>
=

> <Publication_ID>
nan

> <predicted_activity_value>
8.031517051446064

> <actual_activity_value>
8.096910013008056

> <Compound>
5

> <standard_units>
nM

> hash
13470637940307672993

$$$$
5_
XXILIB    08252103493D 0   0.00000     0.00000

 42 45  0     1  0            999 V2000
   -9.7513    6.4501   -0.1634 F   0  0  0  0  0  1           0  0  0
   -8.8654    8.9830   -0.3610 F   0  0  0  0  0  1           0  0  0
    1.3663    0.0000    0.0000 O   0  0  0  0  0  2           0  0  0
   -0.2639    0.0061    2.4192 O   0  0  0  0  0  2           0  0  0
   -9.4868    4.3492    0.8677 O   0  0  0  0  0  2           0  0  0
    6.3585    1.8738   -2.2356 O   0  0  0  0  0  2           0  0  0
   -8.1615    1.4634    0.4636 N   0  0  0  0  0  3           0  0  0
   -7.0027    1.1424   -0.1403 N   0  0  0  0  0  3           0  0  0
   -4.7418   -0.0038   -1.6757 N   0  0  0  0  0  3           0  0  0
   -2.5362    0.0737   -2.6131 N   0  0  0  0  0  3           0  0  0
   -5.0928   -0.1066    0.6806 N   0  0  0  0  0  3           0  0  0
   -8.1014    4.2548   -0.9972 N   0  0  0  0  0  3           0  0  0
    5.4694    0.5532    1.1959 N   0  0  1  0  0  3           0  0  0
   -8.5275    6.6659   -0.6671 C   0  0  0  0  0  4           0  0  0
   -8.0769    7.9791   -0.7693 C   0  0  0  0  0  4           0  0  0
    0.0000    0.0000    0.0000 C   0  0  0  0  0  4           0  0  0
   -0.7791    0.0000    1.1539 C   0  0  0  0  0  4           0  0  0
   -3.8744    0.0569   -2.6953 C   0  0  0  0  0  4           0  0  0
   -6.3329    0.4399    0.7878 C   0  0  0  0  0  4           0  0  0
   -4.2136   -0.0675   -0.4284 C   0  0  0  0  0  4           0  0  0
   -2.0100    0.0319   -1.3826 C   0  0  0  0  0  4           0  0  0
   -8.2691    0.9886    1.7355 C   0  0  0  0  0  4           0  0  0
   -7.7159    5.6064   -1.0815 C   0  0  0  0  0  4           0  0  0
   -2.8104   -0.0323   -0.2230 C   0  0  0  0  0  4           0  0  0
   -6.8182    8.2629   -1.2864 C   0  0  0  0  0  4           0  0  0
   -0.6238    0.0488   -1.2495 C   0  0  0  0  0  4           0  0  0
   -2.1702   -0.0463    1.0418 C   0  0  0  0  0  4           0  0  0
   -7.0967    0.3162    1.9793 C   0  0  0  0  0  4           0  0  0
   -6.4481    5.8926   -1.6057 C   0  0  0  0  0  4           0  0  0
   -6.0029    7.2147   -1.7071 C   0  0  0  0  0  4           0  0  0
   -8.9554    3.7213   -0.0450 C   0  0  0  0  0  4           0  0  0
    1.9811   -1.1163    0.6445 C   0  0  0  0  0  4           0  0  0
    5.7418    1.9328   -0.9561 C   0  0  0  0  0  4           0  0  0
   -0.0394    1.2968    2.9809 C   0  0  0  0  0  4           0  0  0
   -9.1506    2.2392   -0.2505 C   0  0  0  0  0  4           0  0  0
    6.0355    0.6531   -0.1526 C   0  0  0  0  0  4           0  0  0
    5.9162    1.6094    2.1015 C   0  0  0  0  0  4           0  0  0
    4.0230    0.3167    1.2286 C   0  0  0  0  0  4           0  0  0
    7.4265    1.7203    2.3772 C   0  0  1  0  0  4           0  0  0
    3.4946   -0.9632    0.5561 C   0  0  0  0  0  4           0  0  0
    7.7559    2.8639    3.3387 C   0  0  0  0  0  4           0  0  0
    8.0165    0.4064    2.8937 C   0  0  0  0  0  4           0  0  0
  1 14  1  0     0  0
  2 15  1  0     0  0
  3 16  1  0     0  0
  3 32  1  0     0  0
  4 17  1  0     0  0
  4 34  1  0     0  0
  5 31  2  0     0  0
  6 33  1  0     0  0
  7  8  1  0     0  0
  7 22  1  0     0  0
  7 35  1  0     0  0
  8 19  2  0     0  0
  9 18  1  0     0  0
  9 20  2  0     0  0
 10 18  2  0     0  0
 10 21  1  0     0  0
 11 19  1  0     0  0
 11 20  1  0     0  0
 12 23  1  0     0  0
 12 31  1  0     0  0
 13 36  1  0     0  0
 13 37  1  0     0  0
 13 38  1  0     0  0
 14 15  1  0     0  0
 14 23  2  0     0  0
 15 25  2  0     0  0
 16 17  1  0     0  0
 16 26  2  0     0  0
 17 27  2  0     0  0
 19 28  1  0     0  0
 20 24  1  0     0  0
 21 24  2  0     0  0
 21 26  1  0     0  0
 22 28  2  0     0  0
 23 29  1  0     0  0
 24 27  1  0     0  0
 25 30  1  0     0  0
 29 30  2  0     0  0
 31 35  1  0     0  0
 32 40  1  0     0  0
 33 36  1  0     0  0
 37 39  1  0     0  0
 38 40  1  0     0  0
 39 41  1  0     0  0
 39 42  1  0     0  0
M  END
> <standard_type>
pIC50

> <# Confs.>
25

> <canonical_smiles>
O=C(CN(C=C1)N=C1NC2=NC=NC3=C2C=C(OC)C(OCCCN(CC(C)C)CCO)=C3)NC4=C(F)C(F)=CC=C4

> <standard_relation>
=

> <Publication_ID>
nan

> <predicted_activity_value>
8.031517051446064

> <actual_activity_value>
8.096910013008056

> <Compound>
5

> <standard_units>
nM

> hash
13470637940307672993

$$$$
5_
XXILIB    08252103493D 0   0.00000     0.00000

 42 45  0     1  0            999 V2000
   -9.7513    6.4501   -0.1634 F   0  0  0  0  0  1           0  0  0
   -8.8654    8.9830   -0.3610 F   0  0  0  0  0  1           0  0  0
    1.3663   -0.0000   -0.0000 O   0  0  0  0  0  2           0  0  0
   -0.2639    0.0061    2.4192 O   0  0  0  0  0  2           0  0  0
   -9.4868    4.3492    0.8677 O   0  0  0  0  0  2           0  0  0
    6.8660    0.3717    3.8570 O   0  0  0  0  0  2           0  0  0
   -8.1615    1.4634    0.4636 N   0  0  0  0  0  3           0  0  0
   -7.0027    1.1424   -0.1403 N   0  0  0  0  0  3           0  0  0
   -4.7418   -0.0038   -1.6757 N   0  0  0  0  0  3           0  0  0
   -2.5362    0.0737   -2.6131 N   0  0  0  0  0  3           0  0  0
   -5.0928   -0.1066    0.6806 N   0  0  0  0  0  3           0  0  0
   -8.1014    4.2548   -0.9972 N   0  0  0  0  0  3           0  0  0
    5.7329   -2.0581    1.1882 N   0  0  1  0  0  3           0  0  0
   -8.5275    6.6659   -0.6671 C   0  0  0  0  0  4           0  0  0
   -8.0769    7.9791   -0.7693 C   0  0  0  0  0  4           0  0  0
    0.0000    0.0000    0.0000 C   0  0  0  0  0  4           0  0  0
   -0.7791    0.0000    1.1539 C   0  0  0  0  0  4           0  0  0
   -3.8744    0.0569   -2.6953 C   0  0  0  0  0  4           0  0  0
   -6.3329    0.4399    0.7878 C   0  0  0  0  0  4           0  0  0
   -4.2136   -0.0675   -0.4284 C   0  0  0  0  0  4           0  0  0
   -2.0100    0.0319   -1.3826 C   0  0  0  0  0  4           0  0  0
   -8.2691    0.9886    1.7355 C   0  0  0  0  0  4           0  0  0
   -7.7159    5.6064   -1.0815 C   0  0  0  0  0  4           0  0  0
   -2.8104   -0.0323   -0.2230 C   0  0  0  0  0  4           0  0  0
   -6.8182    8.2629   -1.2864 C   0  0  0  0  0  4           0  0  0
   -0.6238    0.0488   -1.2495 C   0  0  0  0  0  4           0  0  0
   -2.1702   -0.0463    1.0418 C   0  0  0  0  0  4           0  0  0
   -7.0967    0.3162    1.9793 C   0  0  0  0  0  4           0  0  0
   -6.4481    5.8926   -1.6057 C   0  0  0  0  0  4           0  0  0
   -6.0029    7.2147   -1.7071 C   0  0  0  0  0  4           0  0  0
   -8.9554    3.7213   -0.0450 C   0  0  0  0  0  4           0  0  0
    1.9811   -1.1163    0.6445 C   0  0  0  0  0  4           0  0  0
    6.2743   -0.8300    3.3808 C   0  0  0  0  0  4           0  0  0
   -0.0394    1.2968    2.9809 C   0  0  0  0  0  4           0  0  0
   -9.1506    2.2392   -0.2505 C   0  0  0  0  0  4           0  0  0
    6.3068   -0.8785    1.8426 C   0  0  0  0  0  4           0  0  0
    6.3823   -3.3127    1.5618 C   0  0  0  0  0  4           0  0  0
    4.2685   -2.1156    1.2214 C   0  0  0  0  0  4           0  0  0
    7.8846   -3.4558    1.2580 C   0  0  1  0  0  4           0  0  0
    3.4946   -0.9632    0.5561 C   0  0  0  0  0  4           0  0  0
    8.4364   -4.8130    1.6987 C   0  0  0  0  0  4           0  0  0
    8.2003   -3.2089   -0.2187 C   0  0  0  0  0  4           0  0  0
  1 14  1  0     0  0
  2 15  1  0     0  0
  3 16  1  0     0  0
  3 32  1  0     0  0
  4 17  1  0     0  0
  4 34  1  0     0  0
  5 31  2  0     0  0
  6 33  1  0     0  0
  7  8  1  0     0  0
  7 22  1  0     0  0
  7 35  1  0     0  0
  8 19  2  0     0  0
  9 18  1  0     0  0
  9 20  2  0     0  0
 10 18  2  0     0  0
 10 21  1  0     0  0
 11 19  1  0     0  0
 11 20  1  0     0  0
 12 23  1  0     0  0
 12 31  1  0     0  0
 13 36  1  0     0  0
 13 37  1  0     0  0
 13 38  1  0     0  0
 14 15  1  0     0  0
 14 23  2  0     0  0
 15 25  2  0     0  0
 16 17  1  0     0  0
 16 26  2  0     0  0
 17 27  2  0     0  0
 19 28  1  0     0  0
 20 24  1  0     0  0
 21 24  2  0     0  0
 21 26  1  0     0  0
 22 28  2  0     0  0
 23 29  1  0     0  0
 24 27  1  0     0  0
 25 30  1  0     0  0
 29 30  2  0     0  0
 31 35  1  0     0  0
 32 40  1  0     0  0
 33 36  1  0     0  0
 37 39  1  0     0  0
 38 40  1  0     0  0
 39 41  1  0     0  0
 39 42  1  0     0  0
M  END
> <standard_type>
pIC50

> <# Confs.>
25

> <canonical_smiles>
O=C(CN(C=C1)N=C1NC2=NC=NC3=C2C=C(OC)C(OCCCN(CC(C)C)CCO)=C3)NC4=C(F)C(F)=CC=C4

> <standard_relation>
=

> <Publication_ID>
nan

> <predicted_activity_value>
8.031517051446064

> <actual_activity_value>
8.096910013008056

> <Compound>
5

> <standard_units>
nM

> hash
13470637940307672993

$$$$
5_
XXILIB    08252103493D 0   0.00000     0.00000

 42 45  0     1  0            999 V2000
   -9.7513    6.4501   -0.1634 F   0  0  0  0  0  1           0  0  0
   -8.8654    8.9830   -0.3610 F   0  0  0  0  0  1           0  0  0
    1.3663   -0.0000   -0.0000 O   0  0  0  0  0  2           0  0  0
   -0.2639    0.0061    2.4192 O   0  0  0  0  0  2           0  0  0
   -9.4868    4.3492    0.8677 O   0  0  0  0  0  2           0  0  0
    7.3006   -2.6985    1.9033 O   0  0  0  0  0  2           0  0  0
   -8.1615    1.4634    0.4636 N   0  0  0  0  0  3           0  0  0
   -7.0027    1.1424   -0.1403 N   0  0  0  0  0  3           0  0  0
   -4.7418   -0.0038   -1.6757 N   0  0  0  0  0  3           0  0  0
   -2.5362    0.0737   -2.6131 N   0  0  0  0  0  3           0  0  0
   -5.0928   -0.1066    0.6806 N   0  0  0  0  0  3           0  0  0
   -8.1014    4.2548   -0.9972 N   0  0  0  0  0  3           0  0  0
    5.6199   -0.3856   -0.5737 N   0  0  1  0  0  3           0  0  0
   -8.5275    6.6659   -0.6671 C   0  0  0  0  0  4           0  0  0
   -8.0769    7.9791   -0.7693 C   0  0  0  0  0  4           0  0  0
    0.0000    0.0000    0.0000 C   0  0  0  0  0  4           0  0  0
   -0.7791    0.0000    1.1539 C   0  0  0  0  0  4           0  0  0
   -3.8744    0.0569   -2.6953 C   0  0  0  0  0  4           0  0  0
   -6.3329    0.4399    0.7878 C   0  0  0  0  0  4           0  0  0
   -4.2136   -0.0675   -0.4284 C   0  0  0  0  0  4           0  0  0
   -2.0100    0.0319   -1.3826 C   0  0  0  0  0  4           0  0  0
   -8.2691    0.9886    1.7355 C   0  0  0  0  0  4           0  0  0
   -7.7159    5.6064   -1.0815 C   0  0  0  0  0  4           0  0  0
   -2.8104   -0.0323   -0.2230 C   0  0  0  0  0  4           0  0  0
   -6.8182    8.2629   -1.2864 C   0  0  0  0  0  4           0  0  0
   -0.6238    0.0488   -1.2495 C   0  0  0  0  0  4           0  0  0
   -2.1702   -0.0463    1.0418 C   0  0  0  0  0  4           0  0  0
   -7.0967    0.3162    1.9793 C   0  0  0  0  0  4           0  0  0
   -6.4481    5.8926   -1.6057 C   0  0  0  0  0  4           0  0  0
   -6.0029    7.2147   -1.7071 C   0  0  0  0  0  4           0  0  0
   -8.9554    3.7213   -0.0450 C   0  0  0  0  0  4           0  0  0
    1.9811   -1.1163    0.6445 C   0  0  0  0  0  4           0  0  0
    6.5000   -1.5876    1.5213 C   0  0  0  0  0  4           0  0  0
   -0.0394    1.2968    2.9809 C   0  0  0  0  0  4           0  0  0
   -9.1506    2.2392   -0.2505 C   0  0  0  0  0  4           0  0  0
    6.4126   -1.4834   -0.0120 C   0  0  0  0  0  4           0  0  0
    5.5939   -0.3660   -2.0346 C   0  0  0  0  0  4           0  0  0
    4.3023   -0.2127    0.0452 C   0  0  0  0  0  4           0  0  0
    6.9386   -0.2215   -2.7696 C   0  0  1  0  0  4           0  0  0
    3.3202   -1.3958   -0.0267 C   0  0  0  0  0  4           0  0  0
    6.7683   -0.2153   -4.2901 C   0  0  0  0  0  4           0  0  0
    7.7126    1.0186   -2.3175 C   0  0  0  0  0  4           0  0  0
  1 14  1  0     0  0
  2 15  1  0     0  0
  3 16  1  0     0  0
  3 32  1  0     0  0
  4 17  1  0     0  0
  4 34  1  0     0  0
  5 31  2  0     0  0
  6 33  1  0     0  0
  7  8  1  0     0  0
  7 22  1  0     0  0
  7 35  1  0     0  0
  8 19  2  0     0  0
  9 18  1  0     0  0
  9 20  2  0     0  0
 10 18  2  0     0  0
 10 21  1  0     0  0
 11 19  1  0     0  0
 11 20  1  0     0  0
 12 23  1  0     0  0
 12 31  1  0     0  0
 13 36  1  0     0  0
 13 37  1  0     0  0
 13 38  1  0     0  0
 14 15  1  0     0  0
 14 23  2  0     0  0
 15 25  2  0     0  0
 16 17  1  0     0  0
 16 26  2  0     0  0
 17 27  2  0     0  0
 19 28  1  0     0  0
 20 24  1  0     0  0
 21 24  2  0     0  0
 21 26  1  0     0  0
 22 28  2  0     0  0
 23 29  1  0     0  0
 24 27  1  0     0  0
 25 30  1  0     0  0
 29 30  2  0     0  0
 31 35  1  0     0  0
 32 40  1  0     0  0
 33 36  1  0     0  0
 37 39  1  0     0  0
 38 40  1  0     0  0
 39 41  1  0     0  0
 39 42  1  0     0  0
M  END
> <standard_type>
pIC50

> <# Confs.>
25

> <canonical_smiles>
O=C(CN(C=C1)N=C1NC2=NC=NC3=C2C=C(OC)C(OCCCN(CC(C)C)CCO)=C3)NC4=C(F)C(F)=CC=C4

> <standard_relation>
=

> <Publication_ID>
nan

> <predicted_activity_value>
8.031517051446064

> <actual_activity_value>
8.096910013008056

> <Compound>
5

> <standard_units>
nM

> hash
13470637940307672993

$$$$
5_
XXILIB    08252103493D 0   0.00000     0.00000

 42 45  0     1  0            999 V2000
   -9.7513    6.4501   -0.1634 F   0  0  0  0  0  1           0  0  0
   -8.8654    8.9830   -0.3610 F   0  0  0  0  0  1           0  0  0
    1.3663   -0.0000    0.0000 O   0  0  0  0  0  2           0  0  0
   -0.2639    0.0061    2.4192 O   0  0  0  0  0  2           0  0  0
   -9.4868    4.3492    0.8677 O   0  0  0  0  0  2           0  0  0
    6.4222   -2.8995   -2.4349 O   0  0  0  0  0  2           0  0  0
   -8.1615    1.4634    0.4636 N   0  0  0  0  0  3           0  0  0
   -7.0027    1.1424   -0.1403 N   0  0  0  0  0  3           0  0  0
   -4.7418   -0.0038   -1.6757 N   0  0  0  0  0  3           0  0  0
   -2.5362    0.0737   -2.6131 N   0  0  0  0  0  3           0  0  0
   -5.0928   -0.1066    0.6806 N   0  0  0  0  0  3           0  0  0
   -8.1014    4.2548   -0.9972 N   0  0  0  0  0  3           0  0  0
    5.7329   -2.0581    1.1882 N   0  0  1  0  0  3           0  0  0
   -8.5275    6.6659   -0.6671 C   0  0  0  0  0  4           0  0  0
   -8.0769    7.9791   -0.7693 C   0  0  0  0  0  4           0  0  0
    0.0000    0.0000    0.0000 C   0  0  0  0  0  4           0  0  0
   -0.7791    0.0000    1.1539 C   0  0  0  0  0  4           0  0  0
   -3.8744    0.0569   -2.6953 C   0  0  0  0  0  4           0  0  0
   -6.3329    0.4399    0.7878 C   0  0  0  0  0  4           0  0  0
   -4.2136   -0.0675   -0.4284 C   0  0  0  0  0  4           0  0  0
   -2.0100    0.0319   -1.3826 C   0  0  0  0  0  4           0  0  0
   -8.2691    0.9886    1.7355 C   0  0  0  0  0  4           0  0  0
   -7.7159    5.6064   -1.0815 C   0  0  0  0  0  4           0  0  0
   -2.8104   -0.0323   -0.2230 C   0  0  0  0  0  4           0  0  0
   -6.8182    8.2629   -1.2864 C   0  0  0  0  0  4           0  0  0
   -0.6238    0.0488   -1.2495 C   0  0  0  0  0  4           0  0  0
   -2.1702   -0.0463    1.0418 C   0  0  0  0  0  4           0  0  0
   -7.0967    0.3162    1.9793 C   0  0  0  0  0  4           0  0  0
   -6.4481    5.8926   -1.6057 C   0  0  0  0  0  4           0  0  0
   -6.0029    7.2147   -1.7071 C   0  0  0  0  0  4           0  0  0
   -8.9554    3.7213   -0.0450 C   0  0  0  0  0  4           0  0  0
    1.9811   -1.1163    0.6445 C   0  0  0  0  0  4           0  0  0
    5.7665   -3.0512   -1.1827 C   0  0  0  0  0  4           0  0  0
   -0.0394    1.2968    2.9809 C   0  0  0  0  0  4           0  0  0
   -9.1506    2.2392   -0.2505 C   0  0  0  0  0  4           0  0  0
    6.3068   -2.0350   -0.1605 C   0  0  0  0  0  4           0  0  0
    6.3059   -1.0601    2.0888 C   0  0  0  0  0  4           0  0  0
    4.2685   -2.1156    1.2214 C   0  0  0  0  0  4           0  0  0
    7.8185   -1.1335    2.3646 C   0  0  1  0  0  4           0  0  0
    3.4946   -0.9632    0.5561 C   0  0  0  0  0  4           0  0  0
    8.2856   -0.0341    3.3206 C   0  0  0  0  0  4           0  0  0
    8.2432   -2.5073    2.8879 C   0  0  0  0  0  4           0  0  0
  1 14  1  0     0  0
  2 15  1  0     0  0
  3 16  1  0     0  0
  3 32  1  0     0  0
  4 17  1  0     0  0
  4 34  1  0     0  0
  5 31  2  0     0  0
  6 33  1  0     0  0
  7  8  1  0     0  0
  7 22  1  0     0  0
  7 35  1  0     0  0
  8 19  2  0     0  0
  9 18  1  0     0  0
  9 20  2  0     0  0
 10 18  2  0     0  0
 10 21  1  0     0  0
 11 19  1  0     0  0
 11 20  1  0     0  0
 12 23  1  0     0  0
 12 31  1  0     0  0
 13 36  1  0     0  0
 13 37  1  0     0  0
 13 38  1  0     0  0
 14 15  1  0     0  0
 14 23  2  0     0  0
 15 25  2  0     0  0
 16 17  1  0     0  0
 16 26  2  0     0  0
 17 27  2  0     0  0
 19 28  1  0     0  0
 20 24  1  0     0  0
 21 24  2  0     0  0
 21 26  1  0     0  0
 22 28  2  0     0  0
 23 29  1  0     0  0
 24 27  1  0     0  0
 25 30  1  0     0  0
 29 30  2  0     0  0
 31 35  1  0     0  0
 32 40  1  0     0  0
 33 36  1  0     0  0
 37 39  1  0     0  0
 38 40  1  0     0  0
 39 41  1  0     0  0
 39 42  1  0     0  0
M  END
> <standard_type>
pIC50

> <# Confs.>
25

> <canonical_smiles>
O=C(CN(C=C1)N=C1NC2=NC=NC3=C2C=C(OC)C(OCCCN(CC(C)C)CCO)=C3)NC4=C(F)C(F)=CC=C4

> <standard_relation>
=

> <Publication_ID>
nan

> <predicted_activity_value>
8.031517051446064

> <actual_activity_value>
8.096910013008056

> <Compound>
5

> <standard_units>
nM

> hash
13470637940307672993

$$$$
5_
XXILIB    08252103493D 0   0.00000     0.00000

 42 45  0     1  0            999 V2000
   -9.7513    6.4501   -0.1634 F   0  0  0  0  0  1           0  0  0
   -8.8654    8.9830   -0.3610 F   0  0  0  0  0  1           0  0  0
    1.3663   -0.0000   -0.0000 O   0  0  0  0  0  2           0  0  0
   -0.2639    0.0061    2.4192 O   0  0  0  0  0  2           0  0  0
   -9.4868    4.3492    0.8677 O   0  0  0  0  0  2           0  0  0
    7.0668   -4.1435   -0.5255 O   0  0  0  0  0  2           0  0  0
   -8.1615    1.4634    0.4636 N   0  0  0  0  0  3           0  0  0
   -7.0027    1.1424   -0.1403 N   0  0  0  0  0  3           0  0  0
   -4.7418   -0.0038   -1.6757 N   0  0  0  0  0  3           0  0  0
   -2.5362    0.0737   -2.6131 N   0  0  0  0  0  3           0  0  0
   -5.0928   -0.1066    0.6806 N   0  0  0  0  0  3           0  0  0
   -8.1014    4.2548   -0.9972 N   0  0  0  0  0  3           0  0  0
    5.4694   -0.7591   -1.0770 N   0  0  1  0  0  3           0  0  0
   -8.5275    6.6659   -0.6671 C   0  0  0  0  0  4           0  0  0
   -8.0769    7.9791   -0.7693 C   0  0  0  0  0  4           0  0  0
    0.0000    0.0000    0.0000 C   0  0  0  0  0  4           0  0  0
   -0.7791    0.0000    1.1539 C   0  0  0  0  0  4           0  0  0
   -3.8744    0.0569   -2.6953 C   0  0  0  0  0  4           0  0  0
   -6.3329    0.4399    0.7878 C   0  0  0  0  0  4           0  0  0
   -4.2136   -0.0675   -0.4284 C   0  0  0  0  0  4           0  0  0
   -2.0100    0.0319   -1.3826 C   0  0  0  0  0  4           0  0  0
   -8.2691    0.9886    1.7355 C   0  0  0  0  0  4           0  0  0
   -7.7159    5.6064   -1.0815 C   0  0  0  0  0  4           0  0  0
   -2.8104   -0.0323   -0.2230 C   0  0  0  0  0  4           0  0  0
   -6.8182    8.2629   -1.2864 C   0  0  0  0  0  4           0  0  0
   -0.6238    0.0488   -1.2495 C   0  0  0  0  0  4           0  0  0
   -2.1702   -0.0463    1.0418 C   0  0  0  0  0  4           0  0  0
   -7.0967    0.3162    1.9793 C   0  0  0  0  0  4           0  0  0
   -6.4481    5.8926   -1.6057 C   0  0  0  0  0  4           0  0  0
   -6.0029    7.2147   -1.7071 C   0  0  0  0  0  4           0  0  0
   -8.9554    3.7213   -0.0450 C   0  0  0  0  0  4           0  0  0
    1.9811   -1.1163    0.6445 C   0  0  0  0  0  4           0  0  0
    6.2465   -3.2059   -1.2105 C   0  0  0  0  0  4           0  0  0
   -0.0394    1.2968    2.9809 C   0  0  0  0  0  4           0  0  0
   -9.1506    2.2392   -0.2505 C   0  0  0  0  0  4           0  0  0
    6.2678   -1.8426   -0.4960 C   0  0  0  0  0  4           0  0  0
    5.8551   -0.4109   -2.4427 C   0  0  0  0  0  4           0  0  0
    4.0230   -0.9057   -0.8885 C   0  0  0  0  0  4           0  0  0
    7.2983    0.0719   -2.6747 C   0  0  1  0  0  4           0  0  0
    3.4946   -0.9632    0.5561 C   0  0  0  0  0  4           0  0  0
    7.5680    0.4019   -4.1441 C   0  0  0  0  0  4           0  0  0
    7.6561    1.2667   -1.7883 C   0  0  0  0  0  4           0  0  0
  1 14  1  0     0  0
  2 15  1  0     0  0
  3 16  1  0     0  0
  3 32  1  0     0  0
  4 17  1  0     0  0
  4 34  1  0     0  0
  5 31  2  0     0  0
  6 33  1  0     0  0
  7  8  1  0     0  0
  7 22  1  0     0  0
  7 35  1  0     0  0
  8 19  2  0     0  0
  9 18  1  0     0  0
  9 20  2  0     0  0
 10 18  2  0     0  0
 10 21  1  0     0  0
 11 19  1  0     0  0
 11 20  1  0     0  0
 12 23  1  0     0  0
 12 31  1  0     0  0
 13 36  1  0     0  0
 13 37  1  0     0  0
 13 38  1  0     0  0
 14 15  1  0     0  0
 14 23  2  0     0  0
 15 25  2  0     0  0
 16 17  1  0     0  0
 16 26  2  0     0  0
 17 27  2  0     0  0
 19 28  1  0     0  0
 20 24  1  0     0  0
 21 24  2  0     0  0
 21 26  1  0     0  0
 22 28  2  0     0  0
 23 29  1  0     0  0
 24 27  1  0     0  0
 25 30  1  0     0  0
 29 30  2  0     0  0
 31 35  1  0     0  0
 32 40  1  0     0  0
 33 36  1  0     0  0
 37 39  1  0     0  0
 38 40  1  0     0  0
 39 41  1  0     0  0
 39 42  1  0     0  0
M  END
> <standard_type>
pIC50

> <# Confs.>
25

> <canonical_smiles>
O=C(CN(C=C1)N=C1NC2=NC=NC3=C2C=C(OC)C(OCCCN(CC(C)C)CCO)=C3)NC4=C(F)C(F)=CC=C4

> <standard_relation>
=

> <Publication_ID>
nan

> <predicted_activity_value>
8.031517051446064

> <actual_activity_value>
8.096910013008056

> <Compound>
5

> <standard_units>
nM

> hash
13470637940307672993

$$$$
5_
XXILIB    08252103493D 0   0.00000     0.00000

 42 45  0     1  0            999 V2000
   -9.7513    6.4501   -0.1634 F   0  0  0  0  0  1           0  0  0
   -8.8654    8.9830   -0.3610 F   0  0  0  0  0  1           0  0  0
    1.3663    0.0000   -0.0000 O   0  0  0  0  0  2           0  0  0
   -0.2639    0.0061    2.4192 O   0  0  0  0  0  2           0  0  0
   -9.4868    4.3492    0.8677 O   0  0  0  0  0  2           0  0  0
    7.1778   -5.0258    2.6671 O   0  0  0  0  0  2           0  0  0
   -8.1615    1.4634    0.4636 N   0  0  0  0  0  3           0  0  0
   -7.0027    1.1424   -0.1403 N   0  0  0  0  0  3           0  0  0
   -4.7418   -0.0038   -1.6757 N   0  0  0  0  0  3           0  0  0
   -2.5362    0.0737   -2.6131 N   0  0  0  0  0  3           0  0  0
   -5.0928   -0.1066    0.6806 N   0  0  0  0  0  3           0  0  0
   -8.1014    4.2548   -0.9972 N   0  0  0  0  0  3           0  0  0
    4.4381   -2.5024    2.0066 N   0  0  1  0  0  3           0  0  0
   -8.5275    6.6659   -0.6671 C   0  0  0  0  0  4           0  0  0
   -8.0769    7.9791   -0.7693 C   0  0  0  0  0  4           0  0  0
    0.0000    0.0000    0.0000 C   0  0  0  0  0  4           0  0  0
   -0.7791    0.0000    1.1539 C   0  0  0  0  0  4           0  0  0
   -3.8744    0.0569   -2.6953 C   0  0  0  0  0  4           0  0  0
   -6.3329    0.4399    0.7878 C   0  0  0  0  0  4           0  0  0
   -4.2136   -0.0675   -0.4284 C   0  0  0  0  0  4           0  0  0
   -2.0100    0.0319   -1.3826 C   0  0  0  0  0  4           0  0  0
   -8.2691    0.9886    1.7355 C   0  0  0  0  0  4           0  0  0
   -7.7159    5.6064   -1.0815 C   0  0  0  0  0  4           0  0  0
   -2.8104   -0.0323   -0.2230 C   0  0  0  0  0  4           0  0  0
   -6.8182    8.2629   -1.2864 C   0  0  0  0  0  4           0  0  0
   -0.6238    0.0488   -1.2495 C   0  0  0  0  0  4           0  0  0
   -2.1702   -0.0463    1.0418 C   0  0  0  0  0  4           0  0  0
   -7.0967    0.3162    1.9793 C   0  0  0  0  0  4           0  0  0
   -6.4481    5.8926   -1.6057 C   0  0  0  0  0  4           0  0  0
   -6.0029    7.2147   -1.7071 C   0  0  0  0  0  4           0  0  0
   -8.9554    3.7213   -0.0450 C   0  0  0  0  0  4           0  0  0
    1.9811   -1.1163    0.6445 C   0  0  0  0  0  4           0  0  0
    6.6257   -3.8500    2.0894 C   0  0  0  0  0  4           0  0  0
   -0.0394    1.2968    2.9809 C   0  0  0  0  0  4           0  0  0
   -9.1506    2.2392   -0.2505 C   0  0  0  0  0  4           0  0  0
    5.1579   -3.6725    2.5180 C   0  0  0  0  0  4           0  0  0
    5.0400   -1.2272    2.3899 C   0  0  0  0  0  4           0  0  0
    4.0789   -2.5859    0.5878 C   0  0  0  0  0  4           0  0  0
    5.1599   -0.9188    3.8932 C   0  0  1  0  0  4           0  0  0
    3.3202   -1.3958   -0.0267 C   0  0  0  0  0  4           0  0  0
    5.8057    0.4435    4.1539 C   0  0  0  0  0  4           0  0  0
    3.8116   -1.0128    4.6105 C   0  0  0  0  0  4           0  0  0
  1 14  1  0     0  0
  2 15  1  0     0  0
  3 16  1  0     0  0
  3 32  1  0     0  0
  4 17  1  0     0  0
  4 34  1  0     0  0
  5 31  2  0     0  0
  6 33  1  0     0  0
  7  8  1  0     0  0
  7 22  1  0     0  0
  7 35  1  0     0  0
  8 19  2  0     0  0
  9 18  1  0     0  0
  9 20  2  0     0  0
 10 18  2  0     0  0
 10 21  1  0     0  0
 11 19  1  0     0  0
 11 20  1  0     0  0
 12 23  1  0     0  0
 12 31  1  0     0  0
 13 36  1  0     0  0
 13 37  1  0     0  0
 13 38  1  0     0  0
 14 15  1  0     0  0
 14 23  2  0     0  0
 15 25  2  0     0  0
 16 17  1  0     0  0
 16 26  2  0     0  0
 17 27  2  0     0  0
 19 28  1  0     0  0
 20 24  1  0     0  0
 21 24  2  0     0  0
 21 26  1  0     0  0
 22 28  2  0     0  0
 23 29  1  0     0  0
 24 27  1  0     0  0
 25 30  1  0     0  0
 29 30  2  0     0  0
 31 35  1  0     0  0
 32 40  1  0     0  0
 33 36  1  0     0  0
 37 39  1  0     0  0
 38 40  1  0     0  0
 39 41  1  0     0  0
 39 42  1  0     0  0
M  END
> <standard_type>
pIC50

> <# Confs.>
25

> <canonical_smiles>
O=C(CN(C=C1)N=C1NC2=NC=NC3=C2C=C(OC)C(OCCCN(CC(C)C)CCO)=C3)NC4=C(F)C(F)=CC=C4

> <standard_relation>
=

> <Publication_ID>
nan

> <predicted_activity_value>
8.031517051446064

> <actual_activity_value>
8.096910013008056

> <Compound>
5

> <standard_units>
nM

> hash
13470637940307672993

$$$$
5_
XXILIB    08252103493D 0   0.00000     0.00000

 42 45  0     1  0            999 V2000
   -9.7513    6.4501   -0.1634 F   0  0  0  0  0  1           0  0  0
   -8.8654    8.9830   -0.3610 F   0  0  0  0  0  1           0  0  0
    1.3663    0.0000    0.0000 O   0  0  0  0  0  2           0  0  0
   -0.2639    0.0061    2.4192 O   0  0  0  0  0  2           0  0  0
   -9.4868    4.3492    0.8677 O   0  0  0  0  0  2           0  0  0
    5.9744    2.8656   -0.1196 O   0  0  0  0  0  2           0  0  0
   -8.1615    1.4634    0.4636 N   0  0  0  0  0  3           0  0  0
   -7.0027    1.1424   -0.1403 N   0  0  0  0  0  3           0  0  0
   -4.7418   -0.0038   -1.6757 N   0  0  0  0  0  3           0  0  0
   -2.5362    0.0737   -2.6131 N   0  0  0  0  0  3           0  0  0
   -5.0928   -0.1066    0.6806 N   0  0  0  0  0  3           0  0  0
   -8.1014    4.2548   -0.9972 N   0  0  0  0  0  3           0  0  0
    5.4694   -0.7591   -1.0770 N   0  0  1  0  0  3           0  0  0
   -8.5275    6.6659   -0.6671 C   0  0  0  0  0  4           0  0  0
   -8.0769    7.9791   -0.7693 C   0  0  0  0  0  4           0  0  0
    0.0000    0.0000    0.0000 C   0  0  0  0  0  4           0  0  0
   -0.7791    0.0000    1.1539 C   0  0  0  0  0  4           0  0  0
   -3.8744    0.0569   -2.6953 C   0  0  0  0  0  4           0  0  0
   -6.3329    0.4399    0.7878 C   0  0  0  0  0  4           0  0  0
   -4.2136   -0.0675   -0.4284 C   0  0  0  0  0  4           0  0  0
   -2.0100    0.0319   -1.3826 C   0  0  0  0  0  4           0  0  0
   -8.2691    0.9886    1.7355 C   0  0  0  0  0  4           0  0  0
   -7.7159    5.6064   -1.0815 C   0  0  0  0  0  4           0  0  0
   -2.8104   -0.0323   -0.2230 C   0  0  0  0  0  4           0  0  0
   -6.8182    8.2629   -1.2864 C   0  0  0  0  0  4           0  0  0
   -0.6238    0.0488   -1.2495 C   0  0  0  0  0  4           0  0  0
   -2.1702   -0.0463    1.0418 C   0  0  0  0  0  4           0  0  0
   -7.0967    0.3162    1.9793 C   0  0  0  0  0  4           0  0  0
   -6.4481    5.8926   -1.6057 C   0  0  0  0  0  4           0  0  0
   -6.0029    7.2147   -1.7071 C   0  0  0  0  0  4           0  0  0
   -8.9554    3.7213   -0.0450 C   0  0  0  0  0  4           0  0  0
    1.9811   -1.1163    0.6445 C   0  0  0  0  0  4           0  0  0
    5.3023    1.7859   -0.7549 C   0  0  0  0  0  4           0  0  0
   -0.0394    1.2968    2.9809 C   0  0  0  0  0  4           0  0  0
   -9.1506    2.2392   -0.2505 C   0  0  0  0  0  4           0  0  0
    6.0355    0.4587   -0.4893 C   0  0  0  0  0  4           0  0  0
    6.2307   -1.9686   -0.7723 C   0  0  0  0  0  4           0  0  0
    4.0230   -0.9057   -0.8885 C   0  0  0  0  0  4           0  0  0
    7.6983   -2.0222   -1.2336 C   0  0  1  0  0  4           0  0  0
    3.4946   -0.9632    0.5561 C   0  0  0  0  0  4           0  0  0
    8.3762   -3.3395   -0.8517 C   0  0  0  0  0  4           0  0  0
    7.8402   -1.7686   -2.7359 C   0  0  0  0  0  4           0  0  0
  1 14  1  0     0  0
  2 15  1  0     0  0
  3 16  1  0     0  0
  3 32  1  0     0  0
  4 17  1  0     0  0
  4 34  1  0     0  0
  5 31  2  0     0  0
  6 33  1  0     0  0
  7  8  1  0     0  0
  7 22  1  0     0  0
  7 35  1  0     0  0
  8 19  2  0     0  0
  9 18  1  0     0  0
  9 20  2  0     0  0
 10 18  2  0     0  0
 10 21  1  0     0  0
 11 19  1  0     0  0
 11 20  1  0     0  0
 12 23  1  0     0  0
 12 31  1  0     0  0
 13 36  1  0     0  0
 13 37  1  0     0  0
 13 38  1  0     0  0
 14 15  1  0     0  0
 14 23  2  0     0  0
 15 25  2  0     0  0
 16 17  1  0     0  0
 16 26  2  0     0  0
 17 27  2  0     0  0
 19 28  1  0     0  0
 20 24  1  0     0  0
 21 24  2  0     0  0
 21 26  1  0     0  0
 22 28  2  0     0  0
 23 29  1  0     0  0
 24 27  1  0     0  0
 25 30  1  0     0  0
 29 30  2  0     0  0
 31 35  1  0     0  0
 32 40  1  0     0  0
 33 36  1  0     0  0
 37 39  1  0     0  0
 38 40  1  0     0  0
 39 41  1  0     0  0
 39 42  1  0     0  0
M  END
> <standard_type>
pIC50

> <# Confs.>
25

> <canonical_smiles>
O=C(CN(C=C1)N=C1NC2=NC=NC3=C2C=C(OC)C(OCCCN(CC(C)C)CCO)=C3)NC4=C(F)C(F)=CC=C4

> <standard_relation>
=

> <Publication_ID>
nan

> <predicted_activity_value>
8.031517051446064

> <actual_activity_value>
8.096910013008056

> <Compound>
5

> <standard_units>
nM

> hash
13470637940307672993

$$$$
5_
XXILIB    08252103493D 0   0.00000     0.00000

 42 45  0     1  0            999 V2000
   -9.7513    6.4501   -0.1634 F   0  0  0  0  0  1           0  0  0
   -8.8654    8.9830   -0.3610 F   0  0  0  0  0  1           0  0  0
    1.3663   -0.0000    0.0000 O   0  0  0  0  0  2           0  0  0
   -0.2639    0.0061    2.4192 O   0  0  0  0  0  2           0  0  0
   -9.4868    4.3492    0.8677 O   0  0  0  0  0  2           0  0  0
    6.6892   -1.9860    3.7207 O   0  0  0  0  0  2           0  0  0
   -8.1615    1.4634    0.4636 N   0  0  0  0  0  3           0  0  0
   -7.0027    1.1424   -0.1403 N   0  0  0  0  0  3           0  0  0
   -4.7418   -0.0038   -1.6757 N   0  0  0  0  0  3           0  0  0
   -2.5362    0.0737   -2.6131 N   0  0  0  0  0  3           0  0  0
   -5.0928   -0.1066    0.6806 N   0  0  0  0  0  3           0  0  0
   -8.1014    4.2548   -0.9972 N   0  0  0  0  0  3           0  0  0
    5.4694    0.5532    1.1959 N   0  0  1  0  0  3           0  0  0
   -8.5275    6.6659   -0.6671 C   0  0  0  0  0  4           0  0  0
   -8.0769    7.9791   -0.7693 C   0  0  0  0  0  4           0  0  0
    0.0000    0.0000    0.0000 C   0  0  0  0  0  4           0  0  0
   -0.7791    0.0000    1.1539 C   0  0  0  0  0  4           0  0  0
   -3.8744    0.0569   -2.6953 C   0  0  0  0  0  4           0  0  0
   -6.3329    0.4399    0.7878 C   0  0  0  0  0  4           0  0  0
   -4.2136   -0.0675   -0.4284 C   0  0  0  0  0  4           0  0  0
   -2.0100    0.0319   -1.3826 C   0  0  0  0  0  4           0  0  0
   -8.2691    0.9886    1.7355 C   0  0  0  0  0  4           0  0  0
   -7.7159    5.6064   -1.0815 C   0  0  0  0  0  4           0  0  0
   -2.8104   -0.0323   -0.2230 C   0  0  0  0  0  4           0  0  0
   -6.8182    8.2629   -1.2864 C   0  0  0  0  0  4           0  0  0
   -0.6238    0.0488   -1.2495 C   0  0  0  0  0  4           0  0  0
   -2.1702   -0.0463    1.0418 C   0  0  0  0  0  4           0  0  0
   -7.0967    0.3162    1.9793 C   0  0  0  0  0  4           0  0  0
   -6.4481    5.8926   -1.6057 C   0  0  0  0  0  4           0  0  0
   -6.0029    7.2147   -1.7071 C   0  0  0  0  0  4           0  0  0
   -8.9554    3.7213   -0.0450 C   0  0  0  0  0  4           0  0  0
    1.9811   -1.1163    0.6445 C   0  0  0  0  0  4           0  0  0
    5.8145   -0.9773    3.2324 C   0  0  0  0  0  4           0  0  0
   -0.0394    1.2968    2.9809 C   0  0  0  0  0  4           0  0  0
   -9.1506    2.2392   -0.2505 C   0  0  0  0  0  4           0  0  0
    6.2678   -0.4917    1.8437 C   0  0  0  0  0  4           0  0  0
    5.9738    0.9506   -0.1167 C   0  0  0  0  0  4           0  0  0
    4.0230    0.3167    1.2286 C   0  0  0  0  0  4           0  0  0
    7.4008    1.5233   -0.1885 C   0  0  1  0  0  4           0  0  0
    3.4946   -0.9632    0.5561 C   0  0  0  0  0  4           0  0  0
    7.8020    1.8975   -1.6167 C   0  0  0  0  0  4           0  0  0
    7.5896    2.7198    0.7464 C   0  0  0  0  0  4           0  0  0
  1 14  1  0     0  0
  2 15  1  0     0  0
  3 16  1  0     0  0
  3 32  1  0     0  0
  4 17  1  0     0  0
  4 34  1  0     0  0
  5 31  2  0     0  0
  6 33  1  0     0  0
  7  8  1  0     0  0
  7 22  1  0     0  0
  7 35  1  0     0  0
  8 19  2  0     0  0
  9 18  1  0     0  0
  9 20  2  0     0  0
 10 18  2  0     0  0
 10 21  1  0     0  0
 11 19  1  0     0  0
 11 20  1  0     0  0
 12 23  1  0     0  0
 12 31  1  0     0  0
 13 36  1  0     0  0
 13 37  1  0     0  0
 13 38  1  0     0  0
 14 15  1  0     0  0
 14 23  2  0     0  0
 15 25  2  0     0  0
 16 17  1  0     0  0
 16 26  2  0     0  0
 17 27  2  0     0  0
 19 28  1  0     0  0
 20 24  1  0     0  0
 21 24  2  0     0  0
 21 26  1  0     0  0
 22 28  2  0     0  0
 23 29  1  0     0  0
 24 27  1  0     0  0
 25 30  1  0     0  0
 29 30  2  0     0  0
 31 35  1  0     0  0
 32 40  1  0     0  0
 33 36  1  0     0  0
 37 39  1  0     0  0
 38 40  1  0     0  0
 39 41  1  0     0  0
 39 42  1  0     0  0
M  END
> <standard_type>
pIC50

> <# Confs.>
25

> <canonical_smiles>
O=C(CN(C=C1)N=C1NC2=NC=NC3=C2C=C(OC)C(OCCCN(CC(C)C)CCO)=C3)NC4=C(F)C(F)=CC=C4

> <standard_relation>
=

> <Publication_ID>
nan

> <predicted_activity_value>
8.031517051446064

> <actual_activity_value>
8.096910013008056

> <Compound>
5

> <standard_units>
nM

> hash
13470637940307672993

$$$$
5_
XXILIB    08252103493D 0   0.00000     0.00000

 42 45  0     1  0            999 V2000
   -9.7513    6.4501   -0.1634 F   0  0  0  0  0  1           0  0  0
   -8.8654    8.9830   -0.3610 F   0  0  0  0  0  1           0  0  0
    1.3663    0.0000   -0.0000 O   0  0  0  0  0  2           0  0  0
   -0.2639    0.0061    2.4192 O   0  0  0  0  0  2           0  0  0
   -9.4868    4.3492    0.8677 O   0  0  0  0  0  2           0  0  0
    6.0491   -2.0817   -4.0717 O   0  0  0  0  0  2           0  0  0
   -8.1615    1.4634    0.4636 N   0  0  0  0  0  3           0  0  0
   -7.0027    1.1424   -0.1403 N   0  0  0  0  0  3           0  0  0
   -4.7418   -0.0038   -1.6757 N   0  0  0  0  0  3           0  0  0
   -2.5362    0.0737   -2.6131 N   0  0  0  0  0  3           0  0  0
   -5.0928   -0.1066    0.6806 N   0  0  0  0  0  3           0  0  0
   -8.1014    4.2548   -0.9972 N   0  0  0  0  0  3           0  0  0
    4.0483   -3.3563   -1.1252 N   0  0  1  0  0  3           0  0  0
   -8.5275    6.6659   -0.6671 C   0  0  0  0  0  4           0  0  0
   -8.0769    7.9791   -0.7693 C   0  0  0  0  0  4           0  0  0
    0.0000    0.0000    0.0000 C   0  0  0  0  0  4           0  0  0
   -0.7791    0.0000    1.1539 C   0  0  0  0  0  4           0  0  0
   -3.8744    0.0569   -2.6953 C   0  0  0  0  0  4           0  0  0
   -6.3329    0.4399    0.7878 C   0  0  0  0  0  4           0  0  0
   -4.2136   -0.0675   -0.4284 C   0  0  0  0  0  4           0  0  0
   -2.0100    0.0319   -1.3826 C   0  0  0  0  0  4           0  0  0
   -8.2691    0.9886    1.7355 C   0  0  0  0  0  4           0  0  0
   -7.7159    5.6064   -1.0815 C   0  0  0  0  0  4           0  0  0
   -2.8104   -0.0323   -0.2230 C   0  0  0  0  0  4           0  0  0
   -6.8182    8.2629   -1.2864 C   0  0  0  0  0  4           0  0  0
   -0.6238    0.0488   -1.2495 C   0  0  0  0  0  4           0  0  0
   -2.1702   -0.0463    1.0418 C   0  0  0  0  0  4           0  0  0
   -7.0967    0.3162    1.9793 C   0  0  0  0  0  4           0  0  0
   -6.4481    5.8926   -1.6057 C   0  0  0  0  0  4           0  0  0
   -6.0029    7.2147   -1.7071 C   0  0  0  0  0  4           0  0  0
   -8.9554    3.7213   -0.0450 C   0  0  0  0  0  4           0  0  0
    1.9811   -1.2890    0.0000 C   0  0  0  0  0  4           0  0  0
    5.8853   -2.6355   -2.7727 C   0  0  0  0  0  4           0  0  0
   -0.0394    1.2968    2.9809 C   0  0  0  0  0  4           0  0  0
   -9.1506    2.2392   -0.2505 C   0  0  0  0  0  4           0  0  0
    4.3920   -2.7958   -2.4354 C   0  0  0  0  0  4           0  0  0
    4.5725   -4.7024   -0.9051 C   0  0  0  0  0  4           0  0  0
    4.2685   -2.4429    0.0000 C   0  0  0  0  0  4           0  0  0
    4.1222   -5.8102   -1.8745 C   0  0  1  0  0  4           0  0  0
    3.4946   -1.1122    0.0000 C   0  0  0  0  0  4           0  0  0
    4.7431   -7.1657   -1.5314 C   0  0  0  0  0  4           0  0  0
    2.5983   -5.9279   -1.9477 C   0  0  0  0  0  4           0  0  0
  1 14  1  0     0  0
  2 15  1  0     0  0
  3 16  1  0     0  0
  3 32  1  0     0  0
  4 17  1  0     0  0
  4 34  1  0     0  0
  5 31  2  0     0  0
  6 33  1  0     0  0
  7  8  1  0     0  0
  7 22  1  0     0  0
  7 35  1  0     0  0
  8 19  2  0     0  0
  9 18  1  0     0  0
  9 20  2  0     0  0
 10 18  2  0     0  0
 10 21  1  0     0  0
 11 19  1  0     0  0
 11 20  1  0     0  0
 12 23  1  0     0  0
 12 31  1  0     0  0
 13 36  1  0     0  0
 13 37  1  0     0  0
 13 38  1  0     0  0
 14 15  1  0     0  0
 14 23  2  0     0  0
 15 25  2  0     0  0
 16 17  1  0     0  0
 16 26  2  0     0  0
 17 27  2  0     0  0
 19 28  1  0     0  0
 20 24  1  0     0  0
 21 24  2  0     0  0
 21 26  1  0     0  0
 22 28  2  0     0  0
 23 29  1  0     0  0
 24 27  1  0     0  0
 25 30  1  0     0  0
 29 30  2  0     0  0
 31 35  1  0     0  0
 32 40  1  0     0  0
 33 36  1  0     0  0
 37 39  1  0     0  0
 38 40  1  0     0  0
 39 41  1  0     0  0
 39 42  1  0     0  0
M  END
> <standard_type>
pIC50

> <# Confs.>
25

> <canonical_smiles>
O=C(CN(C=C1)N=C1NC2=NC=NC3=C2C=C(OC)C(OCCCN(CC(C)C)CCO)=C3)NC4=C(F)C(F)=CC=C4

> <standard_relation>
=

> <Publication_ID>
nan

> <predicted_activity_value>
8.031517051446064

> <actual_activity_value>
8.096910013008056

> <Compound>
5

> <standard_units>
nM

> hash
13470637940307672993

$$$$
5_
XXILIB    08252103493D 0   0.00000     0.00000

 42 45  0     1  0            999 V2000
   -9.7513    6.4501   -0.1634 F   0  0  0  0  0  1           0  0  0
   -8.8654    8.9830   -0.3610 F   0  0  0  0  0  1           0  0  0
    1.3663    0.0000   -0.0000 O   0  0  0  0  0  2           0  0  0
   -0.2639    0.0061    2.4192 O   0  0  0  0  0  2           0  0  0
   -9.4868    4.3492    0.8677 O   0  0  0  0  0  2           0  0  0
    3.8089   -6.0711    0.1325 O   0  0  0  0  0  2           0  0  0
   -8.1615    1.4634    0.4636 N   0  0  0  0  0  3           0  0  0
   -7.0027    1.1424   -0.1403 N   0  0  0  0  0  3           0  0  0
   -4.7418   -0.0038   -1.6757 N   0  0  0  0  0  3           0  0  0
   -2.5362    0.0737   -2.6131 N   0  0  0  0  0  3           0  0  0
   -5.0928   -0.1066    0.6806 N   0  0  0  0  0  3           0  0  0
   -8.1014    4.2548   -0.9972 N   0  0  0  0  0  3           0  0  0
    3.4225   -3.0938    2.4340 N   0  0  1  0  0  3           0  0  0
   -8.5275    6.6659   -0.6671 C   0  0  0  0  0  4           0  0  0
   -8.0769    7.9791   -0.7693 C   0  0  0  0  0  4           0  0  0
    0.0000    0.0000    0.0000 C   0  0  0  0  0  4           0  0  0
   -0.7791    0.0000    1.1539 C   0  0  0  0  0  4           0  0  0
   -3.8744    0.0569   -2.6953 C   0  0  0  0  0  4           0  0  0
   -6.3329    0.4399    0.7878 C   0  0  0  0  0  4           0  0  0
   -4.2136   -0.0675   -0.4284 C   0  0  0  0  0  4           0  0  0
   -2.0100    0.0319   -1.3826 C   0  0  0  0  0  4           0  0  0
   -8.2691    0.9886    1.7355 C   0  0  0  0  0  4           0  0  0
   -7.7159    5.6064   -1.0815 C   0  0  0  0  0  4           0  0  0
   -2.8104   -0.0323   -0.2230 C   0  0  0  0  0  4           0  0  0
   -6.8182    8.2629   -1.2864 C   0  0  0  0  0  4           0  0  0
   -0.6238    0.0488   -1.2495 C   0  0  0  0  0  4           0  0  0
   -2.1702   -0.0463    1.0418 C   0  0  0  0  0  4           0  0  0
   -7.0967    0.3162    1.9793 C   0  0  0  0  0  4           0  0  0
   -6.4481    5.8926   -1.6057 C   0  0  0  0  0  4           0  0  0
   -6.0029    7.2147   -1.7071 C   0  0  0  0  0  4           0  0  0
   -8.9554    3.7213   -0.0450 C   0  0  0  0  0  4           0  0  0
    1.9811   -0.6445    1.1163 C   0  0  0  0  0  4           0  0  0
    4.2780   -5.0554    1.0097 C   0  0  0  0  0  4           0  0  0
   -0.0394    1.2968    2.9809 C   0  0  0  0  0  4           0  0  0
   -9.1506    2.2392   -0.2505 C   0  0  0  0  0  4           0  0  0
    3.1082   -4.1920    1.5151 C   0  0  0  0  0  4           0  0  0
    4.0589   -3.5290    3.6753 C   0  0  0  0  0  4           0  0  0
    4.0789   -1.9455    1.8019 C   0  0  0  0  0  4           0  0  0
    3.2779   -4.5063    4.5723 C   0  0  1  0  0  4           0  0  0
    3.3202   -1.2222    0.6747 C   0  0  0  0  0  4           0  0  0
    4.0564   -4.8791    5.8355 C   0  0  0  0  0  4           0  0  0
    1.8935   -3.9693    4.9415 C   0  0  0  0  0  4           0  0  0
  1 14  1  0     0  0
  2 15  1  0     0  0
  3 16  1  0     0  0
  3 32  1  0     0  0
  4 17  1  0     0  0
  4 34  1  0     0  0
  5 31  2  0     0  0
  6 33  1  0     0  0
  7  8  1  0     0  0
  7 22  1  0     0  0
  7 35  1  0     0  0
  8 19  2  0     0  0
  9 18  1  0     0  0
  9 20  2  0     0  0
 10 18  2  0     0  0
 10 21  1  0     0  0
 11 19  1  0     0  0
 11 20  1  0     0  0
 12 23  1  0     0  0
 12 31  1  0     0  0
 13 36  1  0     0  0
 13 37  1  0     0  0
 13 38  1  0     0  0
 14 15  1  0     0  0
 14 23  2  0     0  0
 15 25  2  0     0  0
 16 17  1  0     0  0
 16 26  2  0     0  0
 17 27  2  0     0  0
 19 28  1  0     0  0
 20 24  1  0     0  0
 21 24  2  0     0  0
 21 26  1  0     0  0
 22 28  2  0     0  0
 23 29  1  0     0  0
 24 27  1  0     0  0
 25 30  1  0     0  0
 29 30  2  0     0  0
 31 35  1  0     0  0
 32 40  1  0     0  0
 33 36  1  0     0  0
 37 39  1  0     0  0
 38 40  1  0     0  0
 39 41  1  0     0  0
 39 42  1  0     0  0
M  END
> <standard_type>
pIC50

> <# Confs.>
25

> <canonical_smiles>
O=C(CN(C=C1)N=C1NC2=NC=NC3=C2C=C(OC)C(OCCCN(CC(C)C)CCO)=C3)NC4=C(F)C(F)=CC=C4

> <standard_relation>
=

> <Publication_ID>
nan

> <predicted_activity_value>
8.031517051446064

> <actual_activity_value>
8.096910013008056

> <Compound>
5

> <standard_units>
nM

> hash
13470637940307672993

$$$$
5_
XXILIB    08252103493D 0   0.00000     0.00000

 42 45  0     1  0            999 V2000
   -9.7513    6.4501   -0.1634 F   0  0  0  0  0  1           0  0  0
   -8.8654    8.9830   -0.3610 F   0  0  0  0  0  1           0  0  0
    1.3663    0.0000    0.0000 O   0  0  0  0  0  2           0  0  0
   -0.2639    0.0061    2.4192 O   0  0  0  0  0  2           0  0  0
   -9.4868    4.3492    0.8677 O   0  0  0  0  0  2           0  0  0
    6.9312   -4.4147    3.9609 O   0  0  0  0  0  2           0  0  0
   -8.1615    1.4634    0.4636 N   0  0  0  0  0  3           0  0  0
   -7.0027    1.1424   -0.1403 N   0  0  0  0  0  3           0  0  0
   -4.7418   -0.0038   -1.6757 N   0  0  0  0  0  3           0  0  0
   -2.5362    0.0737   -2.6131 N   0  0  0  0  0  3           0  0  0
   -5.0928   -0.1066    0.6806 N   0  0  0  0  0  3           0  0  0
   -8.1014    4.2548   -0.9972 N   0  0  0  0  0  3           0  0  0
    4.0483   -2.3441    2.6526 N   0  0  1  0  0  3           0  0  0
   -8.5275    6.6659   -0.6671 C   0  0  0  0  0  4           0  0  0
   -8.0769    7.9791   -0.7693 C   0  0  0  0  0  4           0  0  0
    0.0000    0.0000    0.0000 C   0  0  0  0  0  4           0  0  0
   -0.7791    0.0000    1.1539 C   0  0  0  0  0  4           0  0  0
   -3.8744    0.0569   -2.6953 C   0  0  0  0  0  4           0  0  0
   -6.3329    0.4399    0.7878 C   0  0  0  0  0  4           0  0  0
   -4.2136   -0.0675   -0.4284 C   0  0  0  0  0  4           0  0  0
   -2.0100    0.0319   -1.3826 C   0  0  0  0  0  4           0  0  0
   -8.2691    0.9886    1.7355 C   0  0  0  0  0  4           0  0  0
   -7.7159    5.6064   -1.0815 C   0  0  0  0  0  4           0  0  0
   -2.8104   -0.0323   -0.2230 C   0  0  0  0  0  4           0  0  0
   -6.8182    8.2629   -1.2864 C   0  0  0  0  0  4           0  0  0
   -0.6238    0.0488   -1.2495 C   0  0  0  0  0  4           0  0  0
   -2.1702   -0.0463    1.0418 C   0  0  0  0  0  4           0  0  0
   -7.0967    0.3162    1.9793 C   0  0  0  0  0  4           0  0  0
   -6.4481    5.8926   -1.6057 C   0  0  0  0  0  4           0  0  0
   -6.0029    7.2147   -1.7071 C   0  0  0  0  0  4           0  0  0
   -8.9554    3.7213   -0.0450 C   0  0  0  0  0  4           0  0  0
    1.9811   -1.1163    0.6445 C   0  0  0  0  0  4           0  0  0
    6.3317   -3.2482    3.4121 C   0  0  0  0  0  4           0  0  0
   -0.0394    1.2968    2.9809 C   0  0  0  0  0  4           0  0  0
   -9.1506    2.2392   -0.2505 C   0  0  0  0  0  4           0  0  0
    4.8198   -3.4575    3.2130 C   0  0  0  0  0  4           0  0  0
    4.0994   -1.1273    3.4602 C   0  0  0  0  0  4           0  0  0
    4.2685   -2.1156    1.2214 C   0  0  0  0  0  4           0  0  0
    3.5744   -1.2080    4.9049 C   0  0  1  0  0  4           0  0  0
    3.4946   -0.9632    0.5561 C   0  0  0  0  0  4           0  0  0
    3.6857    0.1315    5.6358 C   0  0  0  0  0  4           0  0  0
    2.1370   -1.7288    4.9678 C   0  0  0  0  0  4           0  0  0
  1 14  1  0     0  0
  2 15  1  0     0  0
  3 16  1  0     0  0
  3 32  1  0     0  0
  4 17  1  0     0  0
  4 34  1  0     0  0
  5 31  2  0     0  0
  6 33  1  0     0  0
  7  8  1  0     0  0
  7 22  1  0     0  0
  7 35  1  0     0  0
  8 19  2  0     0  0
  9 18  1  0     0  0
  9 20  2  0     0  0
 10 18  2  0     0  0
 10 21  1  0     0  0
 11 19  1  0     0  0
 11 20  1  0     0  0
 12 23  1  0     0  0
 12 31  1  0     0  0
 13 36  1  0     0  0
 13 37  1  0     0  0
 13 38  1  0     0  0
 14 15  1  0     0  0
 14 23  2  0     0  0
 15 25  2  0     0  0
 16 17  1  0     0  0
 16 26  2  0     0  0
 17 27  2  0     0  0
 19 28  1  0     0  0
 20 24  1  0     0  0
 21 24  2  0     0  0
 21 26  1  0     0  0
 22 28  2  0     0  0
 23 29  1  0     0  0
 24 27  1  0     0  0
 25 30  1  0     0  0
 29 30  2  0     0  0
 31 35  1  0     0  0
 32 40  1  0     0  0
 33 36  1  0     0  0
 37 39  1  0     0  0
 38 40  1  0     0  0
 39 41  1  0     0  0
 39 42  1  0     0  0
M  END
> <standard_type>
pIC50

> <# Confs.>
25

> <canonical_smiles>
O=C(CN(C=C1)N=C1NC2=NC=NC3=C2C=C(OC)C(OCCCN(CC(C)C)CCO)=C3)NC4=C(F)C(F)=CC=C4

> <standard_relation>
=

> <Publication_ID>
nan

> <predicted_activity_value>
8.031517051446064

> <actual_activity_value>
8.096910013008056

> <Compound>
5

> <standard_units>
nM

> hash
13470637940307672993

$$$$
5_
XXILIB    08252103493D 0   0.00000     0.00000

 42 45  0     1  0            999 V2000
   -9.7513    6.4501   -0.1634 F   0  0  0  0  0  1           0  0  0
   -8.8654    8.9830   -0.3610 F   0  0  0  0  0  1           0  0  0
    1.3663    0.0000    0.0000 O   0  0  0  0  0  2           0  0  0
   -0.2639    0.0061    2.4192 O   0  0  0  0  0  2           0  0  0
   -9.4868    4.3492    0.8677 O   0  0  0  0  0  2           0  0  0
    3.0115   -1.7209   -5.2690 O   0  0  0  0  0  2           0  0  0
   -8.1615    1.4634    0.4636 N   0  0  0  0  0  3           0  0  0
   -7.0027    1.1424   -0.1403 N   0  0  0  0  0  3           0  0  0
   -4.7418   -0.0038   -1.6757 N   0  0  0  0  0  3           0  0  0
   -2.5362    0.0737   -2.6131 N   0  0  0  0  0  3           0  0  0
   -5.0928   -0.1066    0.6806 N   0  0  0  0  0  3           0  0  0
   -8.1014    4.2548   -0.9972 N   0  0  0  0  0  3           0  0  0
    4.8469   -1.6134   -1.9630 N   0  0  1  0  0  3           0  0  0
   -8.5275    6.6659   -0.6671 C   0  0  0  0  0  4           0  0  0
   -8.0769    7.9791   -0.7693 C   0  0  0  0  0  4           0  0  0
    0.0000    0.0000    0.0000 C   0  0  0  0  0  4           0  0  0
   -0.7791    0.0000    1.1539 C   0  0  0  0  0  4           0  0  0
   -3.8744    0.0569   -2.6953 C   0  0  0  0  0  4           0  0  0
   -6.3329    0.4399    0.7878 C   0  0  0  0  0  4           0  0  0
   -4.2136   -0.0675   -0.4284 C   0  0  0  0  0  4           0  0  0
   -2.0100    0.0319   -1.3826 C   0  0  0  0  0  4           0  0  0
   -8.2691    0.9886    1.7355 C   0  0  0  0  0  4           0  0  0
   -7.7159    5.6064   -1.0815 C   0  0  0  0  0  4           0  0  0
   -2.8104   -0.0323   -0.2230 C   0  0  0  0  0  4           0  0  0
   -6.8182    8.2629   -1.2864 C   0  0  0  0  0  4           0  0  0
   -0.6238    0.0488   -1.2495 C   0  0  0  0  0  4           0  0  0
   -2.1702   -0.0463    1.0418 C   0  0  0  0  0  4           0  0  0
   -7.0967    0.3162    1.9793 C   0  0  0  0  0  4           0  0  0
   -6.4481    5.8926   -1.6057 C   0  0  0  0  0  4           0  0  0
   -6.0029    7.2147   -1.7071 C   0  0  0  0  0  4           0  0  0
   -8.9554    3.7213   -0.0450 C   0  0  0  0  0  4           0  0  0
    1.9811   -1.1163    0.6445 C   0  0  0  0  0  4           0  0  0
    3.6496   -1.0772   -4.1738 C   0  0  0  0  0  4           0  0  0
   -0.0394    1.2968    2.9809 C   0  0  0  0  0  4           0  0  0
   -9.1506    2.2392   -0.2505 C   0  0  0  0  0  4           0  0  0
    4.1608   -2.1144   -3.1577 C   0  0  0  0  0  4           0  0  0
    6.0478   -0.8346   -2.2571 C   0  0  0  0  0  4           0  0  0
    3.9623   -0.9889   -0.9748 C   0  0  0  0  0  4           0  0  0
    7.1810   -1.5355   -3.0279 C   0  0  1  0  0  4           0  0  0
    2.8438   -1.8565   -0.3702 C   0  0  0  0  0  4           0  0  0
    8.3751   -0.6096   -3.2682 C   0  0  0  0  0  4           0  0  0
    7.6380   -2.8222   -2.3374 C   0  0  0  0  0  4           0  0  0
  1 14  1  0     0  0
  2 15  1  0     0  0
  3 16  1  0     0  0
  3 32  1  0     0  0
  4 17  1  0     0  0
  4 34  1  0     0  0
  5 31  2  0     0  0
  6 33  1  0     0  0
  7  8  1  0     0  0
  7 22  1  0     0  0
  7 35  1  0     0  0
  8 19  2  0     0  0
  9 18  1  0     0  0
  9 20  2  0     0  0
 10 18  2  0     0  0
 10 21  1  0     0  0
 11 19  1  0     0  0
 11 20  1  0     0  0
 12 23  1  0     0  0
 12 31  1  0     0  0
 13 36  1  0     0  0
 13 37  1  0     0  0
 13 38  1  0     0  0
 14 15  1  0     0  0
 14 23  2  0     0  0
 15 25  2  0     0  0
 16 17  1  0     0  0
 16 26  2  0     0  0
 17 27  2  0     0  0
 19 28  1  0     0  0
 20 24  1  0     0  0
 21 24  2  0     0  0
 21 26  1  0     0  0
 22 28  2  0     0  0
 23 29  1  0     0  0
 24 27  1  0     0  0
 25 30  1  0     0  0
 29 30  2  0     0  0
 31 35  1  0     0  0
 32 40  1  0     0  0
 33 36  1  0     0  0
 37 39  1  0     0  0
 38 40  1  0     0  0
 39 41  1  0     0  0
 39 42  1  0     0  0
M  END
> <standard_type>
pIC50

> <# Confs.>
25

> <canonical_smiles>
O=C(CN(C=C1)N=C1NC2=NC=NC3=C2C=C(OC)C(OCCCN(CC(C)C)CCO)=C3)NC4=C(F)C(F)=CC=C4

> <standard_relation>
=

> <Publication_ID>
nan

> <predicted_activity_value>
8.031517051446064

> <actual_activity_value>
8.096910013008056

> <Compound>
5

> <standard_units>
nM

> hash
13470637940307672993

$$$$
5_
XXILIB    08252103493D 0   0.00000     0.00000

 42 45  0     1  0            999 V2000
   -9.7513    6.4501   -0.1634 F   0  0  0  0  0  1           0  0  0
   -8.8654    8.9830   -0.3610 F   0  0  0  0  0  1           0  0  0
    1.3663    0.0000    0.0000 O   0  0  0  0  0  2           0  0  0
   -0.2639    0.0061    2.4192 O   0  0  0  0  0  2           0  0  0
   -9.4868    4.3492    0.8677 O   0  0  0  0  0  2           0  0  0
    1.8326   -5.6405   -2.8044 O   0  0  0  0  0  2           0  0  0
   -8.1615    1.4634    0.4636 N   0  0  0  0  0  3           0  0  0
   -7.0027    1.1424   -0.1403 N   0  0  0  0  0  3           0  0  0
   -4.7418   -0.0038   -1.6757 N   0  0  0  0  0  3           0  0  0
   -2.5362    0.0737   -2.6131 N   0  0  0  0  0  3           0  0  0
   -5.0928   -0.1066    0.6806 N   0  0  0  0  0  3           0  0  0
   -8.1014    4.2548   -0.9972 N   0  0  0  0  0  3           0  0  0
    4.4160   -3.8657   -0.6863 N   0  0  1  0  0  3           0  0  0
   -8.5275    6.6659   -0.6671 C   0  0  0  0  0  4           0  0  0
   -8.0769    7.9791   -0.7693 C   0  0  0  0  0  4           0  0  0
    0.0000    0.0000    0.0000 C   0  0  0  0  0  4           0  0  0
   -0.7791    0.0000    1.1539 C   0  0  0  0  0  4           0  0  0
   -3.8744    0.0569   -2.6953 C   0  0  0  0  0  4           0  0  0
   -6.3329    0.4399    0.7878 C   0  0  0  0  0  4           0  0  0
   -4.2136   -0.0675   -0.4284 C   0  0  0  0  0  4           0  0  0
   -2.0100    0.0319   -1.3826 C   0  0  0  0  0  4           0  0  0
   -8.2691    0.9886    1.7355 C   0  0  0  0  0  4           0  0  0
   -7.7159    5.6064   -1.0815 C   0  0  0  0  0  4           0  0  0
   -2.8104   -0.0323   -0.2230 C   0  0  0  0  0  4           0  0  0
   -6.8182    8.2629   -1.2864 C   0  0  0  0  0  4           0  0  0
   -0.6238    0.0488   -1.2495 C   0  0  0  0  0  4           0  0  0
   -2.1702   -0.0463    1.0418 C   0  0  0  0  0  4           0  0  0
   -7.0967    0.3162    1.9793 C   0  0  0  0  0  4           0  0  0
   -6.4481    5.8926   -1.6057 C   0  0  0  0  0  4           0  0  0
   -6.0029    7.2147   -1.7071 C   0  0  0  0  0  4           0  0  0
   -8.9554    3.7213   -0.0450 C   0  0  0  0  0  4           0  0  0
    1.9811   -1.1163    0.6445 C   0  0  0  0  0  4           0  0  0
    2.3795   -5.1501   -1.5872 C   0  0  0  0  0  4           0  0  0
   -0.0394    1.2968    2.9809 C   0  0  0  0  0  4           0  0  0
   -9.1506    2.2392   -0.2505 C   0  0  0  0  0  4           0  0  0
    3.7172   -4.4329   -1.8435 C   0  0  0  0  0  4           0  0  0
    5.6748   -3.2052   -1.0246 C   0  0  0  0  0  4           0  0  0
    3.5610   -3.0867    0.2143 C   0  0  0  0  0  4           0  0  0
    6.7684   -4.0559   -1.6953 C   0  0  1  0  0  4           0  0  0
    2.8438   -1.8565   -0.3702 C   0  0  0  0  0  4           0  0  0
    8.0299   -3.2436   -1.9946 C   0  0  0  0  0  4           0  0  0
    7.1194   -5.2971   -0.8722 C   0  0  0  0  0  4           0  0  0
  1 14  1  0     0  0
  2 15  1  0     0  0
  3 16  1  0     0  0
  3 32  1  0     0  0
  4 17  1  0     0  0
  4 34  1  0     0  0
  5 31  2  0     0  0
  6 33  1  0     0  0
  7  8  1  0     0  0
  7 22  1  0     0  0
  7 35  1  0     0  0
  8 19  2  0     0  0
  9 18  1  0     0  0
  9 20  2  0     0  0
 10 18  2  0     0  0
 10 21  1  0     0  0
 11 19  1  0     0  0
 11 20  1  0     0  0
 12 23  1  0     0  0
 12 31  1  0     0  0
 13 36  1  0     0  0
 13 37  1  0     0  0
 13 38  1  0     0  0
 14 15  1  0     0  0
 14 23  2  0     0  0
 15 25  2  0     0  0
 16 17  1  0     0  0
 16 26  2  0     0  0
 17 27  2  0     0  0
 19 28  1  0     0  0
 20 24  1  0     0  0
 21 24  2  0     0  0
 21 26  1  0     0  0
 22 28  2  0     0  0
 23 29  1  0     0  0
 24 27  1  0     0  0
 25 30  1  0     0  0
 29 30  2  0     0  0
 31 35  1  0     0  0
 32 40  1  0     0  0
 33 36  1  0     0  0
 37 39  1  0     0  0
 38 40  1  0     0  0
 39 41  1  0     0  0
 39 42  1  0     0  0
M  END
> <standard_type>
pIC50

> <# Confs.>
25

> <canonical_smiles>
O=C(CN(C=C1)N=C1NC2=NC=NC3=C2C=C(OC)C(OCCCN(CC(C)C)CCO)=C3)NC4=C(F)C(F)=CC=C4

> <standard_relation>
=

> <Publication_ID>
nan

> <predicted_activity_value>
8.031517051446064

> <actual_activity_value>
8.096910013008056

> <Compound>
5

> <standard_units>
nM

> hash
13470637940307672993

$$$$
5_
XXILIB    08252103493D 0   0.00000     0.00000

 42 45  0     1  0            999 V2000
  -11.8540    3.4775   -1.9355 F   0  0  0  0  0  1           0  0  0
  -12.0117    5.9595   -2.9622 F   0  0  0  0  0  1           0  0  0
    1.3663    0.0000    0.0000 O   0  0  0  0  0  2           0  0  0
   -0.2639    0.0061    2.4192 O   0  0  0  0  0  2           0  0  0
  -10.8748    2.0792   -0.3129 O   0  0  0  0  0  2           0  0  0
    3.8089   -5.3239   -2.9208 O   0  0  0  0  0  2           0  0  0
   -8.5031   -0.0225    0.1404 N   0  0  0  0  0  3           0  0  0
   -7.2670   -0.0297   -0.3912 N   0  0  0  0  0  3           0  0  0
   -4.7418   -0.0038   -1.6757 N   0  0  0  0  0  3           0  0  0
   -2.5362    0.0737   -2.6131 N   0  0  0  0  0  3           0  0  0
   -5.0928   -0.1066    0.6806 N   0  0  0  0  0  3           0  0  0
   -9.4193    1.9696   -2.1228 N   0  0  0  0  0  3           0  0  0
    3.4225   -3.8963    0.5610 N   0  0  1  0  0  3           0  0  0
  -10.7752    3.9915   -2.5436 C   0  0  0  0  0  4           0  0  0
  -10.8650    5.2751   -3.0752 C   0  0  0  0  0  4           0  0  0
    0.0000    0.0000    0.0000 C   0  0  0  0  0  4           0  0  0
   -0.7791    0.0000    1.1539 C   0  0  0  0  0  4           0  0  0
   -3.8744    0.0569   -2.6953 C   0  0  0  0  0  4           0  0  0
   -6.4522   -0.0888    0.6747 C   0  0  0  0  0  4           0  0  0
   -4.2136   -0.0675   -0.4284 C   0  0  0  0  0  4           0  0  0
   -2.0100    0.0319   -1.3826 C   0  0  0  0  0  4           0  0  0
   -8.5174   -0.0849    1.5007 C   0  0  0  0  0  4           0  0  0
   -9.5852    3.2661   -2.6462 C   0  0  0  0  0  4           0  0  0
   -2.8104   -0.0323   -0.2230 C   0  0  0  0  0  4           0  0  0
   -9.7794    5.8576   -3.7191 C   0  0  0  0  0  4           0  0  0
   -0.6238    0.0488   -1.2495 C   0  0  0  0  0  4           0  0  0
   -2.1702   -0.0463    1.0418 C   0  0  0  0  0  4           0  0  0
   -7.1990   -0.1303    1.8824 C   0  0  0  0  0  4           0  0  0
   -8.4917    3.8522   -3.2980 C   0  0  0  0  0  4           0  0  0
   -8.5899    5.1415   -3.8314 C   0  0  0  0  0  4           0  0  0
  -10.0706    1.4639   -1.0089 C   0  0  0  0  0  4           0  0  0
    1.9811   -1.1163    0.6445 C   0  0  0  0  0  4           0  0  0
    4.2780   -4.8830   -1.6533 C   0  0  0  0  0  4           0  0  0
   -0.0394    1.2968    2.9809 C   0  0  0  0  0  4           0  0  0
   -9.6564    0.0401   -0.7291 C   0  0  0  0  0  4           0  0  0
    3.1082   -4.3879   -0.7839 C   0  0  0  0  0  4           0  0  0
    4.0589   -4.8938    1.4184 C   0  0  0  0  0  4           0  0  0
    4.0789   -2.5859    0.5878 C   0  0  0  0  0  4           0  0  0
    3.2779   -6.1887    1.7066 C   0  0  1  0  0  4           0  0  0
    3.3202   -1.3958   -0.0267 C   0  0  0  0  0  4           0  0  0
    4.0564   -7.1432    2.6141 C   0  0  0  0  0  4           0  0  0
    1.8935   -5.9083    2.2948 C   0  0  0  0  0  4           0  0  0
  1 14  1  0     0  0
  2 15  1  0     0  0
  3 16  1  0     0  0
  3 32  1  0     0  0
  4 17  1  0     0  0
  4 34  1  0     0  0
  5 31  2  0     0  0
  6 33  1  0     0  0
  7  8  1  0     0  0
  7 22  1  0     0  0
  7 35  1  0     0  0
  8 19  2  0     0  0
  9 18  1  0     0  0
  9 20  2  0     0  0
 10 18  2  0     0  0
 10 21  1  0     0  0
 11 19  1  0     0  0
 11 20  1  0     0  0
 12 23  1  0     0  0
 12 31  1  0     0  0
 13 36  1  0     0  0
 13 37  1  0     0  0
 13 38  1  0     0  0
 14 15  1  0     0  0
 14 23  2  0     0  0
 15 25  2  0     0  0
 16 17  1  0     0  0
 16 26  2  0     0  0
 17 27  2  0     0  0
 19 28  1  0     0  0
 20 24  1  0     0  0
 21 24  2  0     0  0
 21 26  1  0     0  0
 22 28  2  0     0  0
 23 29  1  0     0  0
 24 27  1  0     0  0
 25 30  1  0     0  0
 29 30  2  0     0  0
 31 35  1  0     0  0
 32 40  1  0     0  0
 33 36  1  0     0  0
 37 39  1  0     0  0
 38 40  1  0     0  0
 39 41  1  0     0  0
 39 42  1  0     0  0
M  END
> <standard_type>
pIC50

> <# Confs.>
25

> <canonical_smiles>
O=C(CN(C=C1)N=C1NC2=NC=NC3=C2C=C(OC)C(OCCCN(CC(C)C)CCO)=C3)NC4=C(F)C(F)=CC=C4

> <standard_relation>
=

> <Publication_ID>
nan

> <predicted_activity_value>
8.031517051446064

> <actual_activity_value>
8.096910013008056

> <Compound>
5

> <standard_units>
nM

> hash
13470637940307672993

$$$$
5_
XXILIB    08252103493D 0   0.00000     0.00000

 42 45  0     1  0            999 V2000
   -9.7513    6.4501   -0.1634 F   0  0  0  0  0  1           0  0  0
   -8.8654    8.9830   -0.3610 F   0  0  0  0  0  1           0  0  0
    1.3663    0.0000    0.0000 O   0  0  0  0  0  2           0  0  0
   -0.2639    0.0061    2.4192 O   0  0  0  0  0  2           0  0  0
   -9.4868    4.3492    0.8677 O   0  0  0  0  0  2           0  0  0
    4.7581    0.3329    5.8006 O   0  0  0  0  0  2           0  0  0
   -8.1615    1.4634    0.4636 N   0  0  0  0  0  3           0  0  0
   -7.0027    1.1424   -0.1403 N   0  0  0  0  0  3           0  0  0
   -4.7418   -0.0038   -1.6757 N   0  0  0  0  0  3           0  0  0
   -2.5362    0.0737   -2.6131 N   0  0  0  0  0  3           0  0  0
   -5.0928   -0.1066    0.6806 N   0  0  0  0  0  3           0  0  0
   -8.1014    4.2548   -0.9972 N   0  0  0  0  0  3           0  0  0
    5.3801   -1.4743    2.5360 N   0  0  1  0  0  3           0  0  0
   -8.5275    6.6659   -0.6671 C   0  0  0  0  0  4           0  0  0
   -8.0769    7.9791   -0.7693 C   0  0  0  0  0  4           0  0  0
    0.0000    0.0000    0.0000 C   0  0  0  0  0  4           0  0  0
   -0.7791    0.0000    1.1539 C   0  0  0  0  0  4           0  0  0
   -3.8744    0.0569   -2.6953 C   0  0  0  0  0  4           0  0  0
   -6.3329    0.4399    0.7878 C   0  0  0  0  0  4           0  0  0
   -4.2136   -0.0675   -0.4284 C   0  0  0  0  0  4           0  0  0
   -2.0100    0.0319   -1.3826 C   0  0  0  0  0  4           0  0  0
   -8.2691    0.9886    1.7355 C   0  0  0  0  0  4           0  0  0
   -7.7159    5.6064   -1.0815 C   0  0  0  0  0  4           0  0  0
   -2.8104   -0.0323   -0.2230 C   0  0  0  0  0  4           0  0  0
   -6.8182    8.2629   -1.2864 C   0  0  0  0  0  4           0  0  0
   -0.6238    0.0488   -1.2495 C   0  0  0  0  0  4           0  0  0
   -2.1702   -0.0463    1.0418 C   0  0  0  0  0  4           0  0  0
   -7.0967    0.3162    1.9793 C   0  0  0  0  0  4           0  0  0
   -6.4481    5.8926   -1.6057 C   0  0  0  0  0  4           0  0  0
   -6.0029    7.2147   -1.7071 C   0  0  0  0  0  4           0  0  0
   -8.9554    3.7213   -0.0450 C   0  0  0  0  0  4           0  0  0
    1.9811   -1.1163    0.6445 C   0  0  0  0  0  4           0  0  0
    4.7300   -0.7881    4.9266 C   0  0  0  0  0  4           0  0  0
   -0.0394    1.2968    2.9809 C   0  0  0  0  0  4           0  0  0
   -9.1506    2.2392   -0.2505 C   0  0  0  0  0  4           0  0  0
    5.3332   -0.4243    3.5579 C   0  0  0  0  0  4           0  0  0
    6.1620   -2.6443    2.9297 C   0  0  0  0  0  4           0  0  0
    4.0789   -1.8019    1.9455 C   0  0  0  0  0  4           0  0  0
    7.6498   -2.4290    3.2605 C   0  0  1  0  0  4           0  0  0
    3.3202   -0.6747    1.2222 C   0  0  0  0  0  4           0  0  0
    8.3481   -3.7315    3.6562 C   0  0  0  0  0  4           0  0  0
    8.4030   -1.7503    2.1144 C   0  0  0  0  0  4           0  0  0
  1 14  1  0     0  0
  2 15  1  0     0  0
  3 16  1  0     0  0
  3 32  1  0     0  0
  4 17  1  0     0  0
  4 34  1  0     0  0
  5 31  2  0     0  0
  6 33  1  0     0  0
  7  8  1  0     0  0
  7 22  1  0     0  0
  7 35  1  0     0  0
  8 19  2  0     0  0
  9 18  1  0     0  0
  9 20  2  0     0  0
 10 18  2  0     0  0
 10 21  1  0     0  0
 11 19  1  0     0  0
 11 20  1  0     0  0
 12 23  1  0     0  0
 12 31  1  0     0  0
 13 36  1  0     0  0
 13 37  1  0     0  0
 13 38  1  0     0  0
 14 15  1  0     0  0
 14 23  2  0     0  0
 15 25  2  0     0  0
 16 17  1  0     0  0
 16 26  2  0     0  0
 17 27  2  0     0  0
 19 28  1  0     0  0
 20 24  1  0     0  0
 21 24  2  0     0  0
 21 26  1  0     0  0
 22 28  2  0     0  0
 23 29  1  0     0  0
 24 27  1  0     0  0
 25 30  1  0     0  0
 29 30  2  0     0  0
 31 35  1  0     0  0
 32 40  1  0     0  0
 33 36  1  0     0  0
 37 39  1  0     0  0
 38 40  1  0     0  0
 39 41  1  0     0  0
 39 42  1  0     0  0
M  END
> <standard_type>
pIC50

> <# Confs.>
25

> <canonical_smiles>
O=C(CN(C=C1)N=C1NC2=NC=NC3=C2C=C(OC)C(OCCCN(CC(C)C)CCO)=C3)NC4=C(F)C(F)=CC=C4

> <standard_relation>
=

> <Publication_ID>
nan

> <predicted_activity_value>
8.031517051446064

> <actual_activity_value>
8.096910013008056

> <Compound>
5

> <standard_units>
nM

> hash
13470637940307672993

$$$$
5_
XXILIB    08252103493D 0   0.00000     0.00000

 42 45  0     1  0            999 V2000
   -9.7513    6.4501   -0.1634 F   0  0  0  0  0  1           0  0  0
   -8.8654    8.9830   -0.3610 F   0  0  0  0  0  1           0  0  0
    1.3663    0.0000    0.0000 O   0  0  0  0  0  2           0  0  0
   -0.2639    0.0061    2.4192 O   0  0  0  0  0  2           0  0  0
   -9.4868    4.3492    0.8677 O   0  0  0  0  0  2           0  0  0
   -0.6320   -6.2278   -0.2501 O   0  0  0  0  0  2           0  0  0
   -8.1615    1.4634    0.4636 N   0  0  0  0  0  3           0  0  0
   -7.0027    1.1424   -0.1403 N   0  0  0  0  0  3           0  0  0
   -4.7418   -0.0038   -1.6757 N   0  0  0  0  0  3           0  0  0
   -2.5362    0.0737   -2.6131 N   0  0  0  0  0  3           0  0  0
   -5.0928   -0.1066    0.6806 N   0  0  0  0  0  3           0  0  0
   -8.1014    4.2548   -0.9972 N   0  0  0  0  0  3           0  0  0
    2.1519   -4.1779    1.2854 N   0  0  1  0  0  3           0  0  0
   -8.5275    6.6659   -0.6671 C   0  0  0  0  0  4           0  0  0
   -8.0769    7.9791   -0.7693 C   0  0  0  0  0  4           0  0  0
    0.0000    0.0000    0.0000 C   0  0  0  0  0  4           0  0  0
   -0.7791    0.0000    1.1539 C   0  0  0  0  0  4           0  0  0
   -3.8744    0.0569   -2.6953 C   0  0  0  0  0  4           0  0  0
   -6.3329    0.4399    0.7878 C   0  0  0  0  0  4           0  0  0
   -4.2136   -0.0675   -0.4284 C   0  0  0  0  0  4           0  0  0
   -2.0100    0.0319   -1.3826 C   0  0  0  0  0  4           0  0  0
   -8.2691    0.9886    1.7355 C   0  0  0  0  0  4           0  0  0
   -7.7159    5.6064   -1.0815 C   0  0  0  0  0  4           0  0  0
   -2.8104   -0.0323   -0.2230 C   0  0  0  0  0  4           0  0  0
   -6.8182    8.2629   -1.2864 C   0  0  0  0  0  4           0  0  0
   -0.6238    0.0488   -1.2495 C   0  0  0  0  0  4           0  0  0
   -2.1702   -0.0463    1.0418 C   0  0  0  0  0  4           0  0  0
   -7.0967    0.3162    1.9793 C   0  0  0  0  0  4           0  0  0
   -6.4481    5.8926   -1.6057 C   0  0  0  0  0  4           0  0  0
   -6.0029    7.2147   -1.7071 C   0  0  0  0  0  4           0  0  0
   -8.9554    3.7213   -0.0450 C   0  0  0  0  0  4           0  0  0
    1.9811   -1.1163    0.6445 C   0  0  0  0  0  4           0  0  0
    0.7253   -5.8859   -0.0015 C   0  0  0  0  0  4           0  0  0
   -0.0394    1.2968    2.9809 C   0  0  0  0  0  4           0  0  0
   -9.1506    2.2392   -0.2505 C   0  0  0  0  0  4           0  0  0
    0.8153   -4.6623    0.9282 C   0  0  0  0  0  4           0  0  0
    2.9708   -5.1687    1.9803 C   0  0  0  0  0  4           0  0  0
    2.8534   -3.4840    0.2012 C   0  0  0  0  0  4           0  0  0
    2.4428   -5.7185    3.3176 C   0  0  1  0  0  4           0  0  0
    2.1929   -2.2219   -0.3824 C   0  0  0  0  0  4           0  0  0
    3.3943   -6.7443    3.9366 C   0  0  0  0  0  4           0  0  0
    2.1400   -4.6030    4.3203 C   0  0  0  0  0  4           0  0  0
  1 14  1  0     0  0
  2 15  1  0     0  0
  3 16  1  0     0  0
  3 32  1  0     0  0
  4 17  1  0     0  0
  4 34  1  0     0  0
  5 31  2  0     0  0
  6 33  1  0     0  0
  7  8  1  0     0  0
  7 22  1  0     0  0
  7 35  1  0     0  0
  8 19  2  0     0  0
  9 18  1  0     0  0
  9 20  2  0     0  0
 10 18  2  0     0  0
 10 21  1  0     0  0
 11 19  1  0     0  0
 11 20  1  0     0  0
 12 23  1  0     0  0
 12 31  1  0     0  0
 13 36  1  0     0  0
 13 37  1  0     0  0
 13 38  1  0     0  0
 14 15  1  0     0  0
 14 23  2  0     0  0
 15 25  2  0     0  0
 16 17  1  0     0  0
 16 26  2  0     0  0
 17 27  2  0     0  0
 19 28  1  0     0  0
 20 24  1  0     0  0
 21 24  2  0     0  0
 21 26  1  0     0  0
 22 28  2  0     0  0
 23 29  1  0     0  0
 24 27  1  0     0  0
 25 30  1  0     0  0
 29 30  2  0     0  0
 31 35  1  0     0  0
 32 40  1  0     0  0
 33 36  1  0     0  0
 37 39  1  0     0  0
 38 40  1  0     0  0
 39 41  1  0     0  0
 39 42  1  0     0  0
M  END
> <standard_type>
pIC50

> <# Confs.>
25

> <canonical_smiles>
O=C(CN(C=C1)N=C1NC2=NC=NC3=C2C=C(OC)C(OCCCN(CC(C)C)CCO)=C3)NC4=C(F)C(F)=CC=C4

> <standard_relation>
=

> <Publication_ID>
nan

> <predicted_activity_value>
8.031517051446064

> <actual_activity_value>
8.096910013008056

> <Compound>
5

> <standard_units>
nM

> hash
13470637940307672993

$$$$
6_
XXILIB    08252103493D 0   0.00000     0.00000

 42 46  0     1  0            999 V2000
   -2.9839   -0.2052   -4.7445 O   0  0  0  0  0  2           0  0  0
   -0.3882   -0.2093   -4.9482 O   0  0  0  0  0  2           0  0  0
    7.7128    7.2896   -0.2510 O   0  0  0  0  0  2           0  0  0
    5.8931    3.7263    2.3814 O   0  0  0  0  0  2           0  0  0
  -11.1789    4.1704   -4.6304 O   0  0  0  0  0  2           0  0  0
    3.0970    1.5066    2.6067 N   0  0  0  0  0  3           0  0  0
    1.9189    1.1854    2.0532 N   0  0  0  0  0  3           0  0  0
   -0.6495   -0.0000    1.1904 N   0  0  0  0  0  3           0  0  0
   -2.7540   -0.0514    0.0452 N   0  0  0  0  0  3           0  0  0
    1.4152    0.0000    0.0000 N   0  0  0  0  0  3           0  0  0
    6.6341    2.5519    0.5172 N   0  0  0  0  0  3           0  0  0
   -7.2480    0.8891   -5.3880 N   0  0  1  0  0  3           0  0  0
   -2.2871   -0.1609   -3.5701 C   0  0  0  0  0  4           0  0  0
   -0.8932   -0.1635   -3.6794 C   0  0  0  0  0  4           0  0  0
    7.6750    5.9645   -0.5822 C   0  0  0  0  0  4           0  0  0
   -1.9881   -0.0196    1.1450 C   0  0  0  0  0  4           0  0  0
    2.2520    0.5354    0.9274 C   0  0  0  0  0  4           0  0  0
    0.0000    0.0000    0.0000 C   0  0  0  0  0  4           0  0  0
   -2.1162   -0.0763   -1.1322 C   0  0  0  0  0  4           0  0  0
    4.1831    1.0971    1.8877 C   0  0  0  0  0  4           0  0  0
    7.1612    3.6142   -0.2409 C   0  0  0  0  0  4           0  0  0
   -0.7114   -0.0618   -1.2270 C   0  0  0  0  0  4           0  0  0
   -2.8756   -0.1227   -2.2995 C   0  0  0  0  0  4           0  0  0
    7.1422    4.9423    0.2132 C   0  0  0  0  0  4           0  0  0
   -0.1176   -0.1149   -2.5151 C   0  0  0  0  0  4           0  0  0
    8.2316    5.6497   -1.8260 C   0  0  0  0  0  4           0  0  0
    3.6628    0.4549    0.7871 C   0  0  0  0  0  4           0  0  0
    7.7187    3.3144   -1.4883 C   0  0  0  0  0  4           0  0  0
    8.2522    4.3309   -2.2775 C   0  0  0  0  0  4           0  0  0
    6.0486    2.6726    1.7656 C   0  0  0  0  0  4           0  0  0
   -4.4054   -0.2017   -4.6110 C   0  0  0  0  0  4           0  0  0
   -9.7675    4.3377   -4.6575 C   0  0  0  0  0  4           0  0  0
    1.0348   -0.2111   -5.0380 C   0  0  0  0  0  4           0  0  0
    7.1529    7.6168    1.0188 C   0  0  0  0  0  4           0  0  0
   -6.5650   -0.2553   -5.9953 C   0  0  0  0  0  4           0  0  0
   -6.8960    2.1472   -6.0656 C   0  0  0  0  0  4           0  0  0
   -8.7034    0.6745   -5.4099 C   0  0  0  0  0  4           0  0  0
    5.5780    1.3494    2.3253 C   0  0  0  0  0  4           0  0  0
   -9.1063    3.1720   -5.3796 C   0  0  1  0  0  4           0  0  0
   -5.0297   -0.2538   -5.9989 C   0  0  0  0  0  4           0  0  0
   -7.5853    3.3466   -5.4121 C   0  0  0  0  0  4           0  0  0
   -9.4528    1.8244   -4.7333 C   0  0  0  0  0  4           0  0  0
  1 13  1  0     0  0
  1 31  1  0     0  0
  2 14  1  0     0  0
  2 33  1  0     0  0
  3 15  1  0     0  0
  3 34  1  0     0  0
  4 30  2  0     0  0
  5 32  1  0     0  0
  6  7  1  0     0  0
  6 20  1  0     0  0
  7 17  2  0     0  0
  8 16  1  0     0  0
  8 18  2  0     0  0
  9 16  2  0     0  0
  9 19  1  0     0  0
 10 17  1  0     0  0
 10 18  1  0     0  0
 11 21  1  0     0  0
 11 30  1  0     0  0
 12 35  1  0     0  0
 12 36  1  0     0  0
 12 37  1  0     0  0
 13 14  1  0     0  0
 13 23  2  0     0  0
 14 25  2  0     0  0
 15 24  2  0     0  0
 15 26  1  0     0  0
 17 27  1  0     0  0
 18 22  1  0     0  0
 19 22  2  0     0  0
 19 23  1  0     0  0
 20 27  2  0     0  0
 20 38  1  0     0  0
 21 24  1  0     0  0
 21 28  2  0     0  0
 22 25  1  0     0  0
 26 29  2  0     0  0
 28 29  1  0     0  0
 30 38  1  0     0  0
 31 40  1  0     0  0
 32 39  1  0     0  0
 35 40  1  0     0  0
 36 41  1  0     0  0
 37 42  1  0     0  0
 39 41  1  0     0  0
 39 42  1  0     0  0
M  END
> <standard_type>
pIC50

> <# Confs.>
25

> <canonical_smiles>
O=C(CC1=CC(NC2=NC=NC3=C2C=C(OC)C(OCCCN4CCC(CO)CC4)=C3)=NN1)NC5=CC=CC(OC)=C5

> <standard_relation>
=

> <Publication_ID>
nan

> <predicted_activity_value>
8.065501548756432

> <actual_activity_value>
8.045757490560675

> <Compound>
6

> <standard_units>
nM

> hash
17619100297895759804

$$$$
6_
XXILIB    08252103493D 0   0.00000     0.00000

 42 46  0     1  0            999 V2000
   -2.9839   -0.2052   -4.7445 O   0  0  0  0  0  2           0  0  0
   -0.3882   -0.2093   -4.9482 O   0  0  0  0  0  2           0  0  0
    7.7446   -3.8710    6.1378 O   0  0  0  0  0  2           0  0  0
    5.8984    0.1932    4.4020 O   0  0  0  0  0  2           0  0  0
  -11.1789    4.1704   -4.6304 O   0  0  0  0  0  2           0  0  0
    3.0970    1.5066    2.6067 N   0  0  0  0  0  3           0  0  0
    1.9189    1.1854    2.0532 N   0  0  0  0  0  3           0  0  0
   -0.6495   -0.0000    1.1904 N   0  0  0  0  0  3           0  0  0
   -2.7540   -0.0514    0.0452 N   0  0  0  0  0  3           0  0  0
    1.4152    0.0000    0.0000 N   0  0  0  0  0  3           0  0  0
    6.6716   -0.8000    2.4476 N   0  0  0  0  0  3           0  0  0
   -7.2480    0.8891   -5.3880 N   0  0  1  0  0  3           0  0  0
   -2.2871   -0.1609   -3.5701 C   0  0  0  0  0  4           0  0  0
   -0.8932   -0.1635   -3.6794 C   0  0  0  0  0  4           0  0  0
    7.7229   -3.4749    4.8302 C   0  0  0  0  0  4           0  0  0
   -1.9881   -0.0196    1.1450 C   0  0  0  0  0  4           0  0  0
    2.2520    0.5354    0.9274 C   0  0  0  0  0  4           0  0  0
    0.0000    0.0000    0.0000 C   0  0  0  0  0  4           0  0  0
   -2.1162   -0.0763   -1.1322 C   0  0  0  0  0  4           0  0  0
    4.1831    1.0971    1.8877 C   0  0  0  0  0  4           0  0  0
    7.2097   -1.9869    2.9791 C   0  0  0  0  0  4           0  0  0
   -0.7114   -0.0618   -1.2270 C   0  0  0  0  0  4           0  0  0
   -2.8756   -0.1227   -2.2995 C   0  0  0  0  0  4           0  0  0
    7.1679   -2.2819    4.3508 C   0  0  0  0  0  4           0  0  0
   -0.1176   -0.1149   -2.5151 C   0  0  0  0  0  4           0  0  0
    8.3107   -4.3708    3.9313 C   0  0  0  0  0  4           0  0  0
    3.6628    0.4549    0.7871 C   0  0  0  0  0  4           0  0  0
    7.8032   -2.8910    2.0919 C   0  0  0  0  0  4           0  0  0
    8.3517   -4.0796    2.5686 C   0  0  0  0  0  4           0  0  0
    6.0523    0.1971    3.1813 C   0  0  0  0  0  4           0  0  0
   -4.4054   -0.2017   -4.6110 C   0  0  0  0  0  4           0  0  0
   -9.7675    4.3377   -4.6575 C   0  0  0  0  0  4           0  0  0
    1.0348   -0.2111   -5.0380 C   0  0  0  0  0  4           0  0  0
    7.1412   -2.9652    7.0590 C   0  0  0  0  0  4           0  0  0
   -6.5650   -0.2553   -5.9953 C   0  0  0  0  0  4           0  0  0
   -6.8960    2.1472   -6.0656 C   0  0  0  0  0  4           0  0  0
   -8.7034    0.6745   -5.4099 C   0  0  0  0  0  4           0  0  0
    5.5780    1.3494    2.3253 C   0  0  0  0  0  4           0  0  0
   -9.1063    3.1720   -5.3796 C   0  0  1  0  0  4           0  0  0
   -5.0297   -0.2538   -5.9989 C   0  0  0  0  0  4           0  0  0
   -7.5853    3.3466   -5.4121 C   0  0  0  0  0  4           0  0  0
   -9.4528    1.8244   -4.7333 C   0  0  0  0  0  4           0  0  0
  1 13  1  0     0  0
  1 31  1  0     0  0
  2 14  1  0     0  0
  2 33  1  0     0  0
  3 15  1  0     0  0
  3 34  1  0     0  0
  4 30  2  0     0  0
  5 32  1  0     0  0
  6  7  1  0     0  0
  6 20  1  0     0  0
  7 17  2  0     0  0
  8 16  1  0     0  0
  8 18  2  0     0  0
  9 16  2  0     0  0
  9 19  1  0     0  0
 10 17  1  0     0  0
 10 18  1  0     0  0
 11 21  1  0     0  0
 11 30  1  0     0  0
 12 35  1  0     0  0
 12 36  1  0     0  0
 12 37  1  0     0  0
 13 14  1  0     0  0
 13 23  2  0     0  0
 14 25  2  0     0  0
 15 24  2  0     0  0
 15 26  1  0     0  0
 17 27  1  0     0  0
 18 22  1  0     0  0
 19 22  2  0     0  0
 19 23  1  0     0  0
 20 27  2  0     0  0
 20 38  1  0     0  0
 21 24  1  0     0  0
 21 28  2  0     0  0
 22 25  1  0     0  0
 26 29  2  0     0  0
 28 29  1  0     0  0
 30 38  1  0     0  0
 31 40  1  0     0  0
 32 39  1  0     0  0
 35 40  1  0     0  0
 36 41  1  0     0  0
 37 42  1  0     0  0
 39 41  1  0     0  0
 39 42  1  0     0  0
M  END
> <standard_type>
pIC50

> <# Confs.>
25

> <canonical_smiles>
O=C(CC1=CC(NC2=NC=NC3=C2C=C(OC)C(OCCCN4CCC(CO)CC4)=C3)=NN1)NC5=CC=CC(OC)=C5

> <standard_relation>
=

> <Publication_ID>
nan

> <predicted_activity_value>
8.065501548756432

> <actual_activity_value>
8.045757490560675

> <Compound>
6

> <standard_units>
nM

> hash
17619100297895759804

$$$$
6_
XXILIB    08252103493D 0   0.00000     0.00000

 42 46  0     1  0            999 V2000
   -2.9839   -0.2052   -4.7445 O   0  0  0  0  0  2           0  0  0
   -0.3882   -0.2093   -4.9482 O   0  0  0  0  0  2           0  0  0
    7.7128    7.2896   -0.2510 O   0  0  0  0  0  2           0  0  0
    5.8931    3.7263    2.3814 O   0  0  0  0  0  2           0  0  0
   -8.2963    7.3887   -4.0907 O   0  0  0  0  0  2           0  0  0
    3.0970    1.5066    2.6067 N   0  0  0  0  0  3           0  0  0
    1.9189    1.1854    2.0532 N   0  0  0  0  0  3           0  0  0
   -0.6495    0.0000    1.1904 N   0  0  0  0  0  3           0  0  0
   -2.7540   -0.0514    0.0452 N   0  0  0  0  0  3           0  0  0
    1.4152    0.0000    0.0000 N   0  0  0  0  0  3           0  0  0
    6.6341    2.5519    0.5172 N   0  0  0  0  0  3           0  0  0
   -6.1311    2.8716   -5.3946 N   0  0  1  0  0  3           0  0  0
   -2.2871   -0.1609   -3.5701 C   0  0  0  0  0  4           0  0  0
   -0.8932   -0.1635   -3.6794 C   0  0  0  0  0  4           0  0  0
    7.6750    5.9645   -0.5822 C   0  0  0  0  0  4           0  0  0
   -1.9881   -0.0196    1.1450 C   0  0  0  0  0  4           0  0  0
    2.2520    0.5354    0.9274 C   0  0  0  0  0  4           0  0  0
    0.0000    0.0000    0.0000 C   0  0  0  0  0  4           0  0  0
   -2.1162   -0.0763   -1.1322 C   0  0  0  0  0  4           0  0  0
    4.1831    1.0971    1.8877 C   0  0  0  0  0  4           0  0  0
    7.1612    3.6142   -0.2409 C   0  0  0  0  0  4           0  0  0
   -0.7114   -0.0618   -1.2270 C   0  0  0  0  0  4           0  0  0
   -2.8756   -0.1227   -2.2995 C   0  0  0  0  0  4           0  0  0
    7.1422    4.9423    0.2132 C   0  0  0  0  0  4           0  0  0
   -0.1176   -0.1149   -2.5151 C   0  0  0  0  0  4           0  0  0
    8.2316    5.6497   -1.8260 C   0  0  0  0  0  4           0  0  0
    3.6628    0.4549    0.7871 C   0  0  0  0  0  4           0  0  0
    7.7187    3.3144   -1.4883 C   0  0  0  0  0  4           0  0  0
    8.2522    4.3309   -2.2775 C   0  0  0  0  0  4           0  0  0
    6.0486    2.6726    1.7656 C   0  0  0  0  0  4           0  0  0
   -4.2574    0.4402   -4.7230 C   0  0  0  0  0  4           0  0  0
   -6.9774    6.8735   -3.9653 C   0  0  0  0  0  4           0  0  0
    1.0348   -0.2111   -5.0380 C   0  0  0  0  0  4           0  0  0
    7.1529    7.6168    1.0188 C   0  0  0  0  0  4           0  0  0
   -5.9153    1.6890   -6.2312 C   0  0  0  0  0  4           0  0  0
   -5.1427    3.9228   -5.6840 C   0  0  0  0  0  4           0  0  0
   -7.5001    3.3768   -5.5831 C   0  0  0  0  0  4           0  0  0
    5.5780    1.3494    2.3253 C   0  0  0  0  0  4           0  0  0
   -6.7682    5.7059   -4.9195 C   0  0  1  0  0  4           0  0  0
   -4.5645    0.9682   -6.1178 C   0  0  0  0  0  4           0  0  0
   -5.3488    5.1464   -4.7889 C   0  0  0  0  0  4           0  0  0
   -7.7850    4.5814   -4.6835 C   0  0  0  0  0  4           0  0  0
  1 13  1  0     0  0
  1 31  1  0     0  0
  2 14  1  0     0  0
  2 33  1  0     0  0
  3 15  1  0     0  0
  3 34  1  0     0  0
  4 30  2  0     0  0
  5 32  1  0     0  0
  6  7  1  0     0  0
  6 20  1  0     0  0
  7 17  2  0     0  0
  8 16  1  0     0  0
  8 18  2  0     0  0
  9 16  2  0     0  0
  9 19  1  0     0  0
 10 17  1  0     0  0
 10 18  1  0     0  0
 11 21  1  0     0  0
 11 30  1  0     0  0
 12 35  1  0     0  0
 12 36  1  0     0  0
 12 37  1  0     0  0
 13 14  1  0     0  0
 13 23  2  0     0  0
 14 25  2  0     0  0
 15 24  2  0     0  0
 15 26  1  0     0  0
 17 27  1  0     0  0
 18 22  1  0     0  0
 19 22  2  0     0  0
 19 23  1  0     0  0
 20 27  2  0     0  0
 20 38  1  0     0  0
 21 24  1  0     0  0
 21 28  2  0     0  0
 22 25  1  0     0  0
 26 29  2  0     0  0
 28 29  1  0     0  0
 30 38  1  0     0  0
 31 40  1  0     0  0
 32 39  1  0     0  0
 35 40  1  0     0  0
 36 41  1  0     0  0
 37 42  1  0     0  0
 39 41  1  0     0  0
 39 42  1  0     0  0
M  END
> <standard_type>
pIC50

> <# Confs.>
25

> <canonical_smiles>
O=C(CC1=CC(NC2=NC=NC3=C2C=C(OC)C(OCCCN4CCC(CO)CC4)=C3)=NN1)NC5=CC=CC(OC)=C5

> <standard_relation>
=

> <Publication_ID>
nan

> <predicted_activity_value>
8.065501548756432

> <actual_activity_value>
8.045757490560675

> <Compound>
6

> <standard_units>
nM

> hash
17619100297895759804

$$$$
6_
XXILIB    08252103493D 0   0.00000     0.00000

 42 46  0     1  0            999 V2000
   -2.9839   -0.2052   -4.7445 O   0  0  0  0  0  2           0  0  0
   -0.3882   -0.2093   -4.9482 O   0  0  0  0  0  2           0  0  0
    7.7128    3.8622    6.1875 O   0  0  0  0  0  2           0  0  0
    5.8931   -0.1992    4.4178 O   0  0  0  0  0  2           0  0  0
  -11.1789    4.1704   -4.6304 O   0  0  0  0  0  2           0  0  0
    3.0970   -1.5042    2.6081 N   0  0  0  0  0  3           0  0  0
    1.9189   -1.1854    2.0532 N   0  0  0  0  0  3           0  0  0
   -0.6495   -0.0000    1.1904 N   0  0  0  0  0  3           0  0  0
   -2.7540   -0.0514    0.0452 N   0  0  0  0  0  3           0  0  0
    1.4152    0.0000    0.0000 N   0  0  0  0  0  3           0  0  0
    6.6341    0.8281    2.4686 N   0  0  0  0  0  3           0  0  0
   -7.2480    0.8891   -5.3880 N   0  0  1  0  0  3           0  0  0
   -2.2871   -0.1609   -3.5701 C   0  0  0  0  0  4           0  0  0
   -0.8932   -0.1635   -3.6794 C   0  0  0  0  0  4           0  0  0
    7.6750    3.4864    4.8743 C   0  0  0  0  0  4           0  0  0
   -1.9881   -0.0196    1.1450 C   0  0  0  0  0  4           0  0  0
    2.2520   -0.5354    0.9274 C   0  0  0  0  0  4           0  0  0
    0.0000    0.0000    0.0000 C   0  0  0  0  0  4           0  0  0
   -2.1162   -0.0763   -1.1322 C   0  0  0  0  0  4           0  0  0
    4.1831   -1.0863    1.8939 C   0  0  0  0  0  4           0  0  0
    7.1612    2.0157    3.0096 C   0  0  0  0  0  4           0  0  0
   -0.7114   -0.0618   -1.2270 C   0  0  0  0  0  4           0  0  0
   -2.8756   -0.1227   -2.2995 C   0  0  0  0  0  4           0  0  0
    7.1422    2.2865    4.3868 C   0  0  0  0  0  4           0  0  0
   -0.1176   -0.1149   -2.5151 C   0  0  0  0  0  4           0  0  0
    8.2316    4.4062    3.9798 C   0  0  0  0  0  4           0  0  0
    3.6628   -0.4542    0.7875 C   0  0  0  0  0  4           0  0  0
    7.7187    2.9461    2.1262 C   0  0  0  0  0  4           0  0  0
    8.2522    4.1378    2.6120 C   0  0  0  0  0  4           0  0  0
    6.0486   -0.1927    3.1973 C   0  0  0  0  0  4           0  0  0
   -4.4054   -0.2017   -4.6110 C   0  0  0  0  0  4           0  0  0
   -9.7675    4.3377   -4.6575 C   0  0  0  0  0  4           0  0  0
    1.0348   -0.2111   -5.0380 C   0  0  0  0  0  4           0  0  0
    7.1529    2.9261    7.1057 C   0  0  0  0  0  4           0  0  0
   -6.5650   -0.2553   -5.9953 C   0  0  0  0  0  4           0  0  0
   -6.8960    2.1472   -6.0656 C   0  0  0  0  0  4           0  0  0
   -8.7034    0.6745   -5.4099 C   0  0  0  0  0  4           0  0  0
    5.5780   -1.3390    2.3312 C   0  0  0  0  0  4           0  0  0
   -9.1063    3.1720   -5.3796 C   0  0  1  0  0  4           0  0  0
   -5.0297   -0.2538   -5.9989 C   0  0  0  0  0  4           0  0  0
   -7.5853    3.3466   -5.4121 C   0  0  0  0  0  4           0  0  0
   -9.4528    1.8244   -4.7333 C   0  0  0  0  0  4           0  0  0
  1 13  1  0     0  0
  1 31  1  0     0  0
  2 14  1  0     0  0
  2 33  1  0     0  0
  3 15  1  0     0  0
  3 34  1  0     0  0
  4 30  2  0     0  0
  5 32  1  0     0  0
  6  7  1  0     0  0
  6 20  1  0     0  0
  7 17  2  0     0  0
  8 16  1  0     0  0
  8 18  2  0     0  0
  9 16  2  0     0  0
  9 19  1  0     0  0
 10 17  1  0     0  0
 10 18  1  0     0  0
 11 21  1  0     0  0
 11 30  1  0     0  0
 12 35  1  0     0  0
 12 36  1  0     0  0
 12 37  1  0     0  0
 13 14  1  0     0  0
 13 23  2  0     0  0
 14 25  2  0     0  0
 15 24  2  0     0  0
 15 26  1  0     0  0
 17 27  1  0     0  0
 18 22  1  0     0  0
 19 22  2  0     0  0
 19 23  1  0     0  0
 20 27  2  0     0  0
 20 38  1  0     0  0
 21 24  1  0     0  0
 21 28  2  0     0  0
 22 25  1  0     0  0
 26 29  2  0     0  0
 28 29  1  0     0  0
 30 38  1  0     0  0
 31 40  1  0     0  0
 32 39  1  0     0  0
 35 40  1  0     0  0
 36 41  1  0     0  0
 37 42  1  0     0  0
 39 41  1  0     0  0
 39 42  1  0     0  0
M  END
> <standard_type>
pIC50

> <# Confs.>
25

> <canonical_smiles>
O=C(CC1=CC(NC2=NC=NC3=C2C=C(OC)C(OCCCN4CCC(CO)CC4)=C3)=NN1)NC5=CC=CC(OC)=C5

> <standard_relation>
=

> <Publication_ID>
nan

> <predicted_activity_value>
8.065501548756432

> <actual_activity_value>
8.045757490560675

> <Compound>
6

> <standard_units>
nM

> hash
17619100297895759804

$$$$
6_
XXILIB    08252103493D 0   0.00000     0.00000

 42 46  0     1  0            999 V2000
   -2.9839   -0.2052   -4.7445 O   0  0  0  0  0  2           0  0  0
   -0.3882   -0.2093   -4.9482 O   0  0  0  0  0  2           0  0  0
    7.7446   -7.2510   -0.2834 O   0  0  0  0  0  2           0  0  0
    5.8984   -3.7156    2.3683 O   0  0  0  0  0  2           0  0  0
  -11.1789    4.1704   -4.6304 O   0  0  0  0  0  2           0  0  0
    3.0970   -1.5042    2.6081 N   0  0  0  0  0  3           0  0  0
    1.9189   -1.1854    2.0532 N   0  0  0  0  0  3           0  0  0
   -0.6495   -0.0000    1.1904 N   0  0  0  0  0  3           0  0  0
   -2.7540   -0.0514    0.0452 N   0  0  0  0  0  3           0  0  0
    1.4152   -0.0000    0.0000 N   0  0  0  0  0  3           0  0  0
    6.6716   -2.5197    0.5310 N   0  0  0  0  0  3           0  0  0
   -7.2480    0.8891   -5.3880 N   0  0  1  0  0  3           0  0  0
   -2.2871   -0.1609   -3.5701 C   0  0  0  0  0  4           0  0  0
   -0.8932   -0.1635   -3.6794 C   0  0  0  0  0  4           0  0  0
    7.7229   -5.9206   -0.5943 C   0  0  0  0  0  4           0  0  0
   -1.9881   -0.0196    1.1450 C   0  0  0  0  0  4           0  0  0
    2.2520   -0.5354    0.9274 C   0  0  0  0  0  4           0  0  0
    0.0000    0.0000    0.0000 C   0  0  0  0  0  4           0  0  0
   -2.1162   -0.0763   -1.1322 C   0  0  0  0  0  4           0  0  0
    4.1831   -1.0863    1.8939 C   0  0  0  0  0  4           0  0  0
    7.2097   -3.5734   -0.2312 C   0  0  0  0  0  4           0  0  0
   -0.7114   -0.0618   -1.2270 C   0  0  0  0  0  4           0  0  0
   -2.8756   -0.1227   -2.2995 C   0  0  0  0  0  4           0  0  0
    7.1679   -4.9089    0.1992 C   0  0  0  0  0  4           0  0  0
   -0.1176   -0.1149   -2.5151 C   0  0  0  0  0  4           0  0  0
    8.3107   -5.5900   -1.8196 C   0  0  0  0  0  4           0  0  0
    3.6628   -0.4542    0.7875 C   0  0  0  0  0  4           0  0  0
    7.8032   -3.2571   -1.4577 C   0  0  0  0  0  4           0  0  0
    8.3517   -4.2642   -2.2487 C   0  0  0  0  0  4           0  0  0
    6.0523   -2.6566    1.7613 C   0  0  0  0  0  4           0  0  0
   -4.4054   -0.2017   -4.6110 C   0  0  0  0  0  4           0  0  0
   -9.7675    4.3377   -4.6575 C   0  0  0  0  0  4           0  0  0
    1.0348   -0.2111   -5.0380 C   0  0  0  0  0  4           0  0  0
    7.1412   -7.5959    0.9615 C   0  0  0  0  0  4           0  0  0
   -6.5650   -0.2553   -5.9953 C   0  0  0  0  0  4           0  0  0
   -6.8960    2.1472   -6.0656 C   0  0  0  0  0  4           0  0  0
   -8.7034    0.6745   -5.4099 C   0  0  0  0  0  4           0  0  0
    5.5780   -1.3390    2.3312 C   0  0  0  0  0  4           0  0  0
   -9.1063    3.1720   -5.3796 C   0  0  1  0  0  4           0  0  0
   -5.0297   -0.2538   -5.9989 C   0  0  0  0  0  4           0  0  0
   -7.5853    3.3466   -5.4121 C   0  0  0  0  0  4           0  0  0
   -9.4528    1.8244   -4.7333 C   0  0  0  0  0  4           0  0  0
  1 13  1  0     0  0
  1 31  1  0     0  0
  2 14  1  0     0  0
  2 33  1  0     0  0
  3 15  1  0     0  0
  3 34  1  0     0  0
  4 30  2  0     0  0
  5 32  1  0     0  0
  6  7  1  0     0  0
  6 20  1  0     0  0
  7 17  2  0     0  0
  8 16  1  0     0  0
  8 18  2  0     0  0
  9 16  2  0     0  0
  9 19  1  0     0  0
 10 17  1  0     0  0
 10 18  1  0     0  0
 11 21  1  0     0  0
 11 30  1  0     0  0
 12 35  1  0     0  0
 12 36  1  0     0  0
 12 37  1  0     0  0
 13 14  1  0     0  0
 13 23  2  0     0  0
 14 25  2  0     0  0
 15 24  2  0     0  0
 15 26  1  0     0  0
 17 27  1  0     0  0
 18 22  1  0     0  0
 19 22  2  0     0  0
 19 23  1  0     0  0
 20 27  2  0     0  0
 20 38  1  0     0  0
 21 24  1  0     0  0
 21 28  2  0     0  0
 22 25  1  0     0  0
 26 29  2  0     0  0
 28 29  1  0     0  0
 30 38  1  0     0  0
 31 40  1  0     0  0
 32 39  1  0     0  0
 35 40  1  0     0  0
 36 41  1  0     0  0
 37 42  1  0     0  0
 39 41  1  0     0  0
 39 42  1  0     0  0
M  END
> <standard_type>
pIC50

> <# Confs.>
25

> <canonical_smiles>
O=C(CC1=CC(NC2=NC=NC3=C2C=C(OC)C(OCCCN4CCC(CO)CC4)=C3)=NN1)NC5=CC=CC(OC)=C5

> <standard_relation>
=

> <Publication_ID>
nan

> <predicted_activity_value>
8.065501548756432

> <actual_activity_value>
8.045757490560675

> <Compound>
6

> <standard_units>
nM

> hash
17619100297895759804

$$$$
6_
XXILIB    08252103493D 0   0.00000     0.00000

 42 46  0     1  0            999 V2000
   -2.9839   -0.2052   -4.7445 O   0  0  0  0  0  2           0  0  0
   -0.3882   -0.2093   -4.9482 O   0  0  0  0  0  2           0  0  0
    7.7390    7.2874   -0.2342 O   0  0  0  0  0  2           0  0  0
    5.4763    3.7279    2.0349 O   0  0  0  0  0  2           0  0  0
   -9.4729    5.5627   -5.3158 O   0  0  0  0  0  2           0  0  0
    3.0970    1.5066    2.6067 N   0  0  0  0  0  3           0  0  0
    1.9189    1.1854    2.0532 N   0  0  0  0  0  3           0  0  0
   -0.6495   -0.0000    1.1904 N   0  0  0  0  0  3           0  0  0
   -2.7540   -0.0514    0.0452 N   0  0  0  0  0  3           0  0  0
    1.4152    0.0000    0.0000 N   0  0  0  0  0  3           0  0  0
    7.1468    2.5454    0.9327 N   0  0  0  0  0  3           0  0  0
   -7.2480    0.8891   -5.3880 N   0  0  1  0  0  3           0  0  0
   -2.2871   -0.1609   -3.5701 C   0  0  0  0  0  4           0  0  0
   -0.8932   -0.1635   -3.6794 C   0  0  0  0  0  4           0  0  0
    8.0527    5.9583   -0.2793 C   0  0  0  0  0  4           0  0  0
   -1.9881   -0.0196    1.1450 C   0  0  0  0  0  4           0  0  0
    2.2520    0.5354    0.9274 C   0  0  0  0  0  4           0  0  0
    0.0000    0.0000    0.0000 C   0  0  0  0  0  4           0  0  0
   -2.1162   -0.0763   -1.1322 C   0  0  0  0  0  4           0  0  0
    4.1831    1.0971    1.8877 C   0  0  0  0  0  4           0  0  0
    7.7957    3.6061    0.2734 C   0  0  0  0  0  4           0  0  0
   -0.7114   -0.0618   -1.2270 C   0  0  0  0  0  4           0  0  0
   -2.8756   -0.1227   -2.2995 C   0  0  0  0  0  4           0  0  0
    7.3759    4.9393    0.4027 C   0  0  0  0  0  4           0  0  0
   -0.1176   -0.1149   -2.5151 C   0  0  0  0  0  4           0  0  0
    9.1523    5.6371   -1.0817 C   0  0  0  0  0  4           0  0  0
    3.6628    0.4549    0.7871 C   0  0  0  0  0  4           0  0  0
    8.8954    3.2993   -0.5348 C   0  0  0  0  0  4           0  0  0
    9.5709    4.3136   -1.2098 C   0  0  0  0  0  4           0  0  0
    6.0486    2.6726    1.7656 C   0  0  0  0  0  4           0  0  0
   -4.4054   -0.2017   -4.6110 C   0  0  0  0  0  4           0  0  0
   -9.7675    4.3377   -4.6575 C   0  0  0  0  0  4           0  0  0
    1.0348   -0.2111   -5.0380 C   0  0  0  0  0  4           0  0  0
    6.6229    7.6227    0.5872 C   0  0  0  0  0  4           0  0  0
   -6.5650   -0.2553   -5.9953 C   0  0  0  0  0  4           0  0  0
   -6.8960    2.1472   -6.0656 C   0  0  0  0  0  4           0  0  0
   -8.7034    0.6745   -5.4099 C   0  0  0  0  0  4           0  0  0
    5.5780    1.3494    2.3253 C   0  0  0  0  0  4           0  0  0
   -9.1063    3.1720   -5.3796 C   0  0  1  0  0  4           0  0  0
   -5.0297   -0.2538   -5.9989 C   0  0  0  0  0  4           0  0  0
   -7.5853    3.3466   -5.4121 C   0  0  0  0  0  4           0  0  0
   -9.4528    1.8244   -4.7333 C   0  0  0  0  0  4           0  0  0
  1 13  1  0     0  0
  1 31  1  0     0  0
  2 14  1  0     0  0
  2 33  1  0     0  0
  3 15  1  0     0  0
  3 34  1  0     0  0
  4 30  2  0     0  0
  5 32  1  0     0  0
  6  7  1  0     0  0
  6 20  1  0     0  0
  7 17  2  0     0  0
  8 16  1  0     0  0
  8 18  2  0     0  0
  9 16  2  0     0  0
  9 19  1  0     0  0
 10 17  1  0     0  0
 10 18  1  0     0  0
 11 21  1  0     0  0
 11 30  1  0     0  0
 12 35  1  0     0  0
 12 36  1  0     0  0
 12 37  1  0     0  0
 13 14  1  0     0  0
 13 23  2  0     0  0
 14 25  2  0     0  0
 15 24  2  0     0  0
 15 26  1  0     0  0
 17 27  1  0     0  0
 18 22  1  0     0  0
 19 22  2  0     0  0
 19 23  1  0     0  0
 20 27  2  0     0  0
 20 38  1  0     0  0
 21 24  1  0     0  0
 21 28  2  0     0  0
 22 25  1  0     0  0
 26 29  2  0     0  0
 28 29  1  0     0  0
 30 38  1  0     0  0
 31 40  1  0     0  0
 32 39  1  0     0  0
 35 40  1  0     0  0
 36 41  1  0     0  0
 37 42  1  0     0  0
 39 41  1  0     0  0
 39 42  1  0     0  0
M  END
> <standard_type>
pIC50

> <# Confs.>
25

> <canonical_smiles>
O=C(CC1=CC(NC2=NC=NC3=C2C=C(OC)C(OCCCN4CCC(CO)CC4)=C3)=NN1)NC5=CC=CC(OC)=C5

> <standard_relation>
=

> <Publication_ID>
nan

> <predicted_activity_value>
8.065501548756432

> <actual_activity_value>
8.045757490560675

> <Compound>
6

> <standard_units>
nM

> hash
17619100297895759804

$$$$
6_
XXILIB    08252103493D 0   0.00000     0.00000

 42 46  0     1  0            999 V2000
   -2.9839   -0.2052   -4.7445 O   0  0  0  0  0  2           0  0  0
   -0.3882   -0.2093   -4.9482 O   0  0  0  0  0  2           0  0  0
    7.7128    7.2896   -0.2510 O   0  0  0  0  0  2           0  0  0
    5.8931    3.7263    2.3814 O   0  0  0  0  0  2           0  0  0
  -12.1738   -0.3348   -6.1031 O   0  0  0  0  0  2           0  0  0
    3.0970    1.5066    2.6067 N   0  0  0  0  0  3           0  0  0
    1.9189    1.1854    2.0532 N   0  0  0  0  0  3           0  0  0
   -0.6495   -0.0000    1.1904 N   0  0  0  0  0  3           0  0  0
   -2.7540   -0.0514    0.0452 N   0  0  0  0  0  3           0  0  0
    1.4152    0.0000    0.0000 N   0  0  0  0  0  3           0  0  0
    6.6341    2.5519    0.5172 N   0  0  0  0  0  3           0  0  0
   -7.1225   -1.4299   -5.8244 N   0  0  1  0  0  3           0  0  0
   -2.2871   -0.1609   -3.5701 C   0  0  0  0  0  4           0  0  0
   -0.8932   -0.1635   -3.6794 C   0  0  0  0  0  4           0  0  0
    7.6750    5.9645   -0.5822 C   0  0  0  0  0  4           0  0  0
   -1.9881   -0.0196    1.1450 C   0  0  0  0  0  4           0  0  0
    2.2520    0.5354    0.9274 C   0  0  0  0  0  4           0  0  0
    0.0000    0.0000    0.0000 C   0  0  0  0  0  4           0  0  0
   -2.1162   -0.0763   -1.1322 C   0  0  0  0  0  4           0  0  0
    4.1831    1.0971    1.8877 C   0  0  0  0  0  4           0  0  0
    7.1612    3.6142   -0.2409 C   0  0  0  0  0  4           0  0  0
   -0.7114   -0.0618   -1.2270 C   0  0  0  0  0  4           0  0  0
   -2.8756   -0.1227   -2.2995 C   0  0  0  0  0  4           0  0  0
    7.1422    4.9423    0.2132 C   0  0  0  0  0  4           0  0  0
   -0.1176   -0.1149   -2.5151 C   0  0  0  0  0  4           0  0  0
    8.2316    5.6497   -1.8260 C   0  0  0  0  0  4           0  0  0
    3.6628    0.4549    0.7871 C   0  0  0  0  0  4           0  0  0
    7.7187    3.3144   -1.4883 C   0  0  0  0  0  4           0  0  0
    8.2522    4.3309   -2.2775 C   0  0  0  0  0  4           0  0  0
    6.0486    2.6726    1.7656 C   0  0  0  0  0  4           0  0  0
   -4.2560   -0.8498   -4.6753 C   0  0  0  0  0  4           0  0  0
  -11.0043    0.4732   -6.1142 C   0  0  0  0  0  4           0  0  0
    1.0348   -0.2111   -5.0380 C   0  0  0  0  0  4           0  0  0
    7.1529    7.6168    1.0188 C   0  0  0  0  0  4           0  0  0
   -5.9112   -2.2103   -6.0868 C   0  0  0  0  0  4           0  0  0
   -7.2721   -0.3284   -6.7888 C   0  0  0  0  0  4           0  0  0
   -8.3017   -2.3095   -5.8503 C   0  0  0  0  0  4           0  0  0
    5.5780    1.3494    2.3253 C   0  0  0  0  0  4           0  0  0
   -9.7844   -0.3596   -6.4827 C   0  0  1  0  0  4           0  0  0
   -4.5619   -1.4803   -6.0272 C   0  0  0  0  0  4           0  0  0
   -8.5210    0.5056   -6.4964 C   0  0  0  0  0  4           0  0  0
   -9.5847   -1.5416   -5.5251 C   0  0  0  0  0  4           0  0  0
  1 13  1  0     0  0
  1 31  1  0     0  0
  2 14  1  0     0  0
  2 33  1  0     0  0
  3 15  1  0     0  0
  3 34  1  0     0  0
  4 30  2  0     0  0
  5 32  1  0     0  0
  6  7  1  0     0  0
  6 20  1  0     0  0
  7 17  2  0     0  0
  8 16  1  0     0  0
  8 18  2  0     0  0
  9 16  2  0     0  0
  9 19  1  0     0  0
 10 17  1  0     0  0
 10 18  1  0     0  0
 11 21  1  0     0  0
 11 30  1  0     0  0
 12 35  1  0     0  0
 12 36  1  0     0  0
 12 37  1  0     0  0
 13 14  1  0     0  0
 13 23  2  0     0  0
 14 25  2  0     0  0
 15 24  2  0     0  0
 15 26  1  0     0  0
 17 27  1  0     0  0
 18 22  1  0     0  0
 19 22  2  0     0  0
 19 23  1  0     0  0
 20 27  2  0     0  0
 20 38  1  0     0  0
 21 24  1  0     0  0
 21 28  2  0     0  0
 22 25  1  0     0  0
 26 29  2  0     0  0
 28 29  1  0     0  0
 30 38  1  0     0  0
 31 40  1  0     0  0
 32 39  1  0     0  0
 35 40  1  0     0  0
 36 41  1  0     0  0
 37 42  1  0     0  0
 39 41  1  0     0  0
 39 42  1  0     0  0
M  END
> <standard_type>
pIC50

> <# Confs.>
25

> <canonical_smiles>
O=C(CC1=CC(NC2=NC=NC3=C2C=C(OC)C(OCCCN4CCC(CO)CC4)=C3)=NN1)NC5=CC=CC(OC)=C5

> <standard_relation>
=

> <Publication_ID>
nan

> <predicted_activity_value>
8.065501548756432

> <actual_activity_value>
8.045757490560675

> <Compound>
6

> <standard_units>
nM

> hash
17619100297895759804

$$$$
6_
XXILIB    08252103493D 0   0.00000     0.00000

 42 46  0     1  0            999 V2000
   -2.9839   -0.2052   -4.7445 O   0  0  0  0  0  2           0  0  0
   -0.3882   -0.2093   -4.9482 O   0  0  0  0  0  2           0  0  0
    7.7446   -3.8710    6.1378 O   0  0  0  0  0  2           0  0  0
    5.8984    0.1932    4.4020 O   0  0  0  0  0  2           0  0  0
   -8.2963    7.3887   -4.0907 O   0  0  0  0  0  2           0  0  0
    3.0970    1.5066    2.6067 N   0  0  0  0  0  3           0  0  0
    1.9189    1.1854    2.0532 N   0  0  0  0  0  3           0  0  0
   -0.6495    0.0000    1.1904 N   0  0  0  0  0  3           0  0  0
   -2.7540   -0.0514    0.0452 N   0  0  0  0  0  3           0  0  0
    1.4152    0.0000    0.0000 N   0  0  0  0  0  3           0  0  0
    6.6716   -0.8000    2.4476 N   0  0  0  0  0  3           0  0  0
   -6.1311    2.8716   -5.3946 N   0  0  1  0  0  3           0  0  0
   -2.2871   -0.1609   -3.5701 C   0  0  0  0  0  4           0  0  0
   -0.8932   -0.1635   -3.6794 C   0  0  0  0  0  4           0  0  0
    7.7229   -3.4749    4.8302 C   0  0  0  0  0  4           0  0  0
   -1.9881   -0.0196    1.1450 C   0  0  0  0  0  4           0  0  0
    2.2520    0.5354    0.9274 C   0  0  0  0  0  4           0  0  0
    0.0000    0.0000    0.0000 C   0  0  0  0  0  4           0  0  0
   -2.1162   -0.0763   -1.1322 C   0  0  0  0  0  4           0  0  0
    4.1831    1.0971    1.8877 C   0  0  0  0  0  4           0  0  0
    7.2097   -1.9869    2.9791 C   0  0  0  0  0  4           0  0  0
   -0.7114   -0.0618   -1.2270 C   0  0  0  0  0  4           0  0  0
   -2.8756   -0.1227   -2.2995 C   0  0  0  0  0  4           0  0  0
    7.1679   -2.2819    4.3508 C   0  0  0  0  0  4           0  0  0
   -0.1176   -0.1149   -2.5151 C   0  0  0  0  0  4           0  0  0
    8.3107   -4.3708    3.9313 C   0  0  0  0  0  4           0  0  0
    3.6628    0.4549    0.7871 C   0  0  0  0  0  4           0  0  0
    7.8032   -2.8910    2.0919 C   0  0  0  0  0  4           0  0  0
    8.3517   -4.0796    2.5686 C   0  0  0  0  0  4           0  0  0
    6.0523    0.1971    3.1813 C   0  0  0  0  0  4           0  0  0
   -4.2574    0.4402   -4.7230 C   0  0  0  0  0  4           0  0  0
   -6.9774    6.8735   -3.9653 C   0  0  0  0  0  4           0  0  0
    1.0348   -0.2111   -5.0380 C   0  0  0  0  0  4           0  0  0
    7.1412   -2.9652    7.0590 C   0  0  0  0  0  4           0  0  0
   -5.9153    1.6890   -6.2312 C   0  0  0  0  0  4           0  0  0
   -5.1427    3.9228   -5.6840 C   0  0  0  0  0  4           0  0  0
   -7.5001    3.3768   -5.5831 C   0  0  0  0  0  4           0  0  0
    5.5780    1.3494    2.3253 C   0  0  0  0  0  4           0  0  0
   -6.7682    5.7059   -4.9195 C   0  0  1  0  0  4           0  0  0
   -4.5645    0.9682   -6.1178 C   0  0  0  0  0  4           0  0  0
   -5.3488    5.1464   -4.7889 C   0  0  0  0  0  4           0  0  0
   -7.7850    4.5814   -4.6835 C   0  0  0  0  0  4           0  0  0
  1 13  1  0     0  0
  1 31  1  0     0  0
  2 14  1  0     0  0
  2 33  1  0     0  0
  3 15  1  0     0  0
  3 34  1  0     0  0
  4 30  2  0     0  0
  5 32  1  0     0  0
  6  7  1  0     0  0
  6 20  1  0     0  0
  7 17  2  0     0  0
  8 16  1  0     0  0
  8 18  2  0     0  0
  9 16  2  0     0  0
  9 19  1  0     0  0
 10 17  1  0     0  0
 10 18  1  0     0  0
 11 21  1  0     0  0
 11 30  1  0     0  0
 12 35  1  0     0  0
 12 36  1  0     0  0
 12 37  1  0     0  0
 13 14  1  0     0  0
 13 23  2  0     0  0
 14 25  2  0     0  0
 15 24  2  0     0  0
 15 26  1  0     0  0
 17 27  1  0     0  0
 18 22  1  0     0  0
 19 22  2  0     0  0
 19 23  1  0     0  0
 20 27  2  0     0  0
 20 38  1  0     0  0
 21 24  1  0     0  0
 21 28  2  0     0  0
 22 25  1  0     0  0
 26 29  2  0     0  0
 28 29  1  0     0  0
 30 38  1  0     0  0
 31 40  1  0     0  0
 32 39  1  0     0  0
 35 40  1  0     0  0
 36 41  1  0     0  0
 37 42  1  0     0  0
 39 41  1  0     0  0
 39 42  1  0     0  0
M  END
> <standard_type>
pIC50

> <# Confs.>
25

> <canonical_smiles>
O=C(CC1=CC(NC2=NC=NC3=C2C=C(OC)C(OCCCN4CCC(CO)CC4)=C3)=NN1)NC5=CC=CC(OC)=C5

> <standard_relation>
=

> <Publication_ID>
nan

> <predicted_activity_value>
8.065501548756432

> <actual_activity_value>
8.045757490560675

> <Compound>
6

> <standard_units>
nM

> hash
17619100297895759804

$$$$
6_
XXILIB    08252103493D 0   0.00000     0.00000

 42 46  0     1  0            999 V2000
   -2.9839   -0.2052   -4.7445 O   0  0  0  0  0  2           0  0  0
   -0.3882   -0.2093   -4.9482 O   0  0  0  0  0  2           0  0  0
    7.7128    7.2896   -0.2510 O   0  0  0  0  0  2           0  0  0
    5.8931    3.7263    2.3814 O   0  0  0  0  0  2           0  0  0
   -6.3622    7.4175   -7.2312 O   0  0  0  0  0  2           0  0  0
    3.0970    1.5066    2.6067 N   0  0  0  0  0  3           0  0  0
    1.9189    1.1854    2.0532 N   0  0  0  0  0  3           0  0  0
   -0.6495    0.0000    1.1904 N   0  0  0  0  0  3           0  0  0
   -2.7540   -0.0514    0.0452 N   0  0  0  0  0  3           0  0  0
    1.4152    0.0000    0.0000 N   0  0  0  0  0  3           0  0  0
    6.6341    2.5519    0.5172 N   0  0  0  0  0  3           0  0  0
   -6.3800    2.3994   -5.9599 N   0  0  1  0  0  3           0  0  0
   -2.2871   -0.1609   -3.5701 C   0  0  0  0  0  4           0  0  0
   -0.8932   -0.1635   -3.6794 C   0  0  0  0  0  4           0  0  0
    7.6750    5.9645   -0.5822 C   0  0  0  0  0  4           0  0  0
   -1.9881   -0.0196    1.1450 C   0  0  0  0  0  4           0  0  0
    2.2520    0.5354    0.9274 C   0  0  0  0  0  4           0  0  0
    0.0000    0.0000    0.0000 C   0  0  0  0  0  4           0  0  0
   -2.1162   -0.0763   -1.1322 C   0  0  0  0  0  4           0  0  0
    4.1831    1.0971    1.8877 C   0  0  0  0  0  4           0  0  0
    7.1612    3.6142   -0.2409 C   0  0  0  0  0  4           0  0  0
   -0.7114   -0.0618   -1.2270 C   0  0  0  0  0  4           0  0  0
   -2.8756   -0.1227   -2.2995 C   0  0  0  0  0  4           0  0  0
    7.1422    4.9423    0.2132 C   0  0  0  0  0  4           0  0  0
   -0.1176   -0.1149   -2.5151 C   0  0  0  0  0  4           0  0  0
    8.2316    5.6497   -1.8260 C   0  0  0  0  0  4           0  0  0
    3.6628    0.4549    0.7871 C   0  0  0  0  0  4           0  0  0
    7.7187    3.3144   -1.4883 C   0  0  0  0  0  4           0  0  0
    8.2522    4.3309   -2.2775 C   0  0  0  0  0  4           0  0  0
    6.0486    2.6726    1.7656 C   0  0  0  0  0  4           0  0  0
   -4.2574    0.4402   -4.7230 C   0  0  0  0  0  4           0  0  0
   -7.1289    6.6527   -6.3103 C   0  0  0  0  0  4           0  0  0
    1.0348   -0.2111   -5.0380 C   0  0  0  0  0  4           0  0  0
    7.1529    7.6168    1.0188 C   0  0  0  0  0  4           0  0  0
   -6.2849    0.9590   -6.2073 C   0  0  0  0  0  4           0  0  0
   -5.5481    3.1633   -6.9035 C   0  0  0  0  0  4           0  0  0
   -7.7847    2.8301   -6.0362 C   0  0  0  0  0  4           0  0  0
    5.5780    1.3494    2.3253 C   0  0  0  0  0  4           0  0  0
   -7.0675    5.1734   -6.6647 C   0  0  1  0  0  4           0  0  0
   -4.9013    0.3029   -6.0961 C   0  0  0  0  0  4           0  0  0
   -5.6232    4.6660   -6.6259 C   0  0  0  0  0  4           0  0  0
   -7.9343    4.3216   -5.7283 C   0  0  0  0  0  4           0  0  0
  1 13  1  0     0  0
  1 31  1  0     0  0
  2 14  1  0     0  0
  2 33  1  0     0  0
  3 15  1  0     0  0
  3 34  1  0     0  0
  4 30  2  0     0  0
  5 32  1  0     0  0
  6  7  1  0     0  0
  6 20  1  0     0  0
  7 17  2  0     0  0
  8 16  1  0     0  0
  8 18  2  0     0  0
  9 16  2  0     0  0
  9 19  1  0     0  0
 10 17  1  0     0  0
 10 18  1  0     0  0
 11 21  1  0     0  0
 11 30  1  0     0  0
 12 35  1  0     0  0
 12 36  1  0     0  0
 12 37  1  0     0  0
 13 14  1  0     0  0
 13 23  2  0     0  0
 14 25  2  0     0  0
 15 24  2  0     0  0
 15 26  1  0     0  0
 17 27  1  0     0  0
 18 22  1  0     0  0
 19 22  2  0     0  0
 19 23  1  0     0  0
 20 27  2  0     0  0
 20 38  1  0     0  0
 21 24  1  0     0  0
 21 28  2  0     0  0
 22 25  1  0     0  0
 26 29  2  0     0  0
 28 29  1  0     0  0
 30 38  1  0     0  0
 31 40  1  0     0  0
 32 39  1  0     0  0
 35 40  1  0     0  0
 36 41  1  0     0  0
 37 42  1  0     0  0
 39 41  1  0     0  0
 39 42  1  0     0  0
M  END
> <standard_type>
pIC50

> <# Confs.>
25

> <canonical_smiles>
O=C(CC1=CC(NC2=NC=NC3=C2C=C(OC)C(OCCCN4CCC(CO)CC4)=C3)=NN1)NC5=CC=CC(OC)=C5

> <standard_relation>
=

> <Publication_ID>
nan

> <predicted_activity_value>
8.065501548756432

> <actual_activity_value>
8.045757490560675

> <Compound>
6

> <standard_units>
nM

> hash
17619100297895759804

$$$$
6_
XXILIB    08252103493D 0   0.00000     0.00000

 42 46  0     1  0            999 V2000
   -2.9839   -0.2052   -4.7445 O   0  0  0  0  0  2           0  0  0
   -0.3882   -0.2093   -4.9482 O   0  0  0  0  0  2           0  0  0
    7.7128    7.2896   -0.2510 O   0  0  0  0  0  2           0  0  0
    5.8931    3.7263    2.3814 O   0  0  0  0  0  2           0  0  0
   -5.3536   -3.3340  -13.0463 O   0  0  0  0  0  2           0  0  0
    3.0970    1.5066    2.6067 N   0  0  0  0  0  3           0  0  0
    1.9189    1.1854    2.0532 N   0  0  0  0  0  3           0  0  0
   -0.6495    0.0000    1.1904 N   0  0  0  0  0  3           0  0  0
   -2.7540   -0.0514    0.0452 N   0  0  0  0  0  3           0  0  0
    1.4152    0.0000    0.0000 N   0  0  0  0  0  3           0  0  0
    6.6341    2.5519    0.5172 N   0  0  0  0  0  3           0  0  0
   -5.2015   -1.6315   -8.1605 N   0  0  1  0  0  3           0  0  0
   -2.2871   -0.1609   -3.5701 C   0  0  0  0  0  4           0  0  0
   -0.8932   -0.1635   -3.6794 C   0  0  0  0  0  4           0  0  0
    7.6750    5.9645   -0.5822 C   0  0  0  0  0  4           0  0  0
   -1.9881   -0.0196    1.1450 C   0  0  0  0  0  4           0  0  0
    2.2520    0.5354    0.9274 C   0  0  0  0  0  4           0  0  0
    0.0000    0.0000    0.0000 C   0  0  0  0  0  4           0  0  0
   -2.1162   -0.0763   -1.1322 C   0  0  0  0  0  4           0  0  0
    4.1831    1.0971    1.8877 C   0  0  0  0  0  4           0  0  0
    7.1612    3.6142   -0.2409 C   0  0  0  0  0  4           0  0  0
   -0.7114   -0.0618   -1.2270 C   0  0  0  0  0  4           0  0  0
   -2.8756   -0.1227   -2.2995 C   0  0  0  0  0  4           0  0  0
    7.1422    4.9423    0.2132 C   0  0  0  0  0  4           0  0  0
   -0.1176   -0.1149   -2.5151 C   0  0  0  0  0  4           0  0  0
    8.2316    5.6497   -1.8260 C   0  0  0  0  0  4           0  0  0
    3.6628    0.4549    0.7871 C   0  0  0  0  0  4           0  0  0
    7.7187    3.3144   -1.4883 C   0  0  0  0  0  4           0  0  0
    8.2522    4.3309   -2.2775 C   0  0  0  0  0  4           0  0  0
    6.0486    2.6726    1.7656 C   0  0  0  0  0  4           0  0  0
   -4.4054   -0.2017   -4.6110 C   0  0  0  0  0  4           0  0  0
   -5.7045   -2.0976  -12.4388 C   0  0  0  0  0  4           0  0  0
    1.0348   -0.2111   -5.0380 C   0  0  0  0  0  4           0  0  0
    7.1529    7.6168    1.0188 C   0  0  0  0  0  4           0  0  0
   -4.6460   -1.4983   -6.8119 C   0  0  0  0  0  4           0  0  0
   -4.7998   -0.5075   -9.0213 C   0  0  0  0  0  4           0  0  0
   -4.7865   -2.9141   -8.7499 C   0  0  0  0  0  4           0  0  0
    5.5780    1.3494    2.3253 C   0  0  0  0  0  4           0  0  0
   -5.0306   -1.9608  -11.0806 C   0  0  1  0  0  4           0  0  0
   -5.0297   -0.2538   -5.9989 C   0  0  0  0  0  4           0  0  0
   -5.4050   -0.6304  -10.4211 C   0  0  0  0  0  4           0  0  0
   -5.3925   -3.1177  -10.1402 C   0  0  0  0  0  4           0  0  0
  1 13  1  0     0  0
  1 31  1  0     0  0
  2 14  1  0     0  0
  2 33  1  0     0  0
  3 15  1  0     0  0
  3 34  1  0     0  0
  4 30  2  0     0  0
  5 32  1  0     0  0
  6  7  1  0     0  0
  6 20  1  0     0  0
  7 17  2  0     0  0
  8 16  1  0     0  0
  8 18  2  0     0  0
  9 16  2  0     0  0
  9 19  1  0     0  0
 10 17  1  0     0  0
 10 18  1  0     0  0
 11 21  1  0     0  0
 11 30  1  0     0  0
 12 35  1  0     0  0
 12 36  1  0     0  0
 12 37  1  0     0  0
 13 14  1  0     0  0
 13 23  2  0     0  0
 14 25  2  0     0  0
 15 24  2  0     0  0
 15 26  1  0     0  0
 17 27  1  0     0  0
 18 22  1  0     0  0
 19 22  2  0     0  0
 19 23  1  0     0  0
 20 27  2  0     0  0
 20 38  1  0     0  0
 21 24  1  0     0  0
 21 28  2  0     0  0
 22 25  1  0     0  0
 26 29  2  0     0  0
 28 29  1  0     0  0
 30 38  1  0     0  0
 31 40  1  0     0  0
 32 39  1  0     0  0
 35 40  1  0     0  0
 36 41  1  0     0  0
 37 42  1  0     0  0
 39 41  1  0     0  0
 39 42  1  0     0  0
M  END
> <standard_type>
pIC50

> <# Confs.>
25

> <canonical_smiles>
O=C(CC1=CC(NC2=NC=NC3=C2C=C(OC)C(OCCCN4CCC(CO)CC4)=C3)=NN1)NC5=CC=CC(OC)=C5

> <standard_relation>
=

> <Publication_ID>
nan

> <predicted_activity_value>
8.065501548756432

> <actual_activity_value>
8.045757490560675

> <Compound>
6

> <standard_units>
nM

> hash
17619100297895759804

$$$$
6_
XXILIB    08252103493D 0   0.00000     0.00000

 42 46  0     1  0            999 V2000
   -2.9839   -0.2052   -4.7445 O   0  0  0  0  0  2           0  0  0
   -0.3882   -0.2093   -4.9482 O   0  0  0  0  0  2           0  0  0
    7.7128    7.2896   -0.2510 O   0  0  0  0  0  2           0  0  0
    5.8931    3.7263    2.3814 O   0  0  0  0  0  2           0  0  0
  -11.3386    2.1311   -4.0796 O   0  0  0  0  0  2           0  0  0
    3.0970    1.5066    2.6067 N   0  0  0  0  0  3           0  0  0
    1.9189    1.1854    2.0532 N   0  0  0  0  0  3           0  0  0
   -0.6495   -0.0000    1.1904 N   0  0  0  0  0  3           0  0  0
   -2.7540   -0.0514    0.0452 N   0  0  0  0  0  3           0  0  0
    1.4152    0.0000    0.0000 N   0  0  0  0  0  3           0  0  0
    6.6341    2.5519    0.5172 N   0  0  0  0  0  3           0  0  0
   -7.3415   -0.9377   -5.2638 N   0  0  1  0  0  3           0  0  0
   -2.2871   -0.1609   -3.5701 C   0  0  0  0  0  4           0  0  0
   -0.8932   -0.1635   -3.6794 C   0  0  0  0  0  4           0  0  0
    7.6750    5.9645   -0.5822 C   0  0  0  0  0  4           0  0  0
   -1.9881   -0.0196    1.1450 C   0  0  0  0  0  4           0  0  0
    2.2520    0.5354    0.9274 C   0  0  0  0  0  4           0  0  0
    0.0000    0.0000    0.0000 C   0  0  0  0  0  4           0  0  0
   -2.1162   -0.0763   -1.1322 C   0  0  0  0  0  4           0  0  0
    4.1831    1.0971    1.8877 C   0  0  0  0  0  4           0  0  0
    7.1612    3.6142   -0.2409 C   0  0  0  0  0  4           0  0  0
   -0.7114   -0.0618   -1.2270 C   0  0  0  0  0  4           0  0  0
   -2.8756   -0.1227   -2.2995 C   0  0  0  0  0  4           0  0  0
    7.1422    4.9423    0.2132 C   0  0  0  0  0  4           0  0  0
   -0.1176   -0.1149   -2.5151 C   0  0  0  0  0  4           0  0  0
    8.2316    5.6497   -1.8260 C   0  0  0  0  0  4           0  0  0
    3.6628    0.4549    0.7871 C   0  0  0  0  0  4           0  0  0
    7.7187    3.3144   -1.4883 C   0  0  0  0  0  4           0  0  0
    8.2522    4.3309   -2.2775 C   0  0  0  0  0  4           0  0  0
    6.0486    2.6726    1.7656 C   0  0  0  0  0  4           0  0  0
   -4.2560   -0.8498   -4.6753 C   0  0  0  0  0  4           0  0  0
  -11.0309    0.7773   -3.7738 C   0  0  0  0  0  4           0  0  0
    1.0348   -0.2111   -5.0380 C   0  0  0  0  0  4           0  0  0
    7.1529    7.6168    1.0188 C   0  0  0  0  0  4           0  0  0
   -6.2823   -1.4813   -6.1169 C   0  0  0  0  0  4           0  0  0
   -7.6129    0.4743   -5.5772 C   0  0  0  0  0  4           0  0  0
   -8.5624   -1.7468   -5.4024 C   0  0  0  0  0  4           0  0  0
    5.5780    1.3494    2.3253 C   0  0  0  0  0  4           0  0  0
   -9.9909    0.2347   -4.7441 C   0  0  1  0  0  4           0  0  0
   -4.9001   -0.8159   -6.0546 C   0  0  0  0  0  4           0  0  0
   -8.6978    1.0512   -4.6656 C   0  0  0  0  0  4           0  0  0
   -9.6785   -1.2446   -4.4838 C   0  0  0  0  0  4           0  0  0
  1 13  1  0     0  0
  1 31  1  0     0  0
  2 14  1  0     0  0
  2 33  1  0     0  0
  3 15  1  0     0  0
  3 34  1  0     0  0
  4 30  2  0     0  0
  5 32  1  0     0  0
  6  7  1  0     0  0
  6 20  1  0     0  0
  7 17  2  0     0  0
  8 16  1  0     0  0
  8 18  2  0     0  0
  9 16  2  0     0  0
  9 19  1  0     0  0
 10 17  1  0     0  0
 10 18  1  0     0  0
 11 21  1  0     0  0
 11 30  1  0     0  0
 12 35  1  0     0  0
 12 36  1  0     0  0
 12 37  1  0     0  0
 13 14  1  0     0  0
 13 23  2  0     0  0
 14 25  2  0     0  0
 15 24  2  0     0  0
 15 26  1  0     0  0
 17 27  1  0     0  0
 18 22  1  0     0  0
 19 22  2  0     0  0
 19 23  1  0     0  0
 20 27  2  0     0  0
 20 38  1  0     0  0
 21 24  1  0     0  0
 21 28  2  0     0  0
 22 25  1  0     0  0
 26 29  2  0     0  0
 28 29  1  0     0  0
 30 38  1  0     0  0
 31 40  1  0     0  0
 32 39  1  0     0  0
 35 40  1  0     0  0
 36 41  1  0     0  0
 37 42  1  0     0  0
 39 41  1  0     0  0
 39 42  1  0     0  0
M  END
> <standard_type>
pIC50

> <# Confs.>
25

> <canonical_smiles>
O=C(CC1=CC(NC2=NC=NC3=C2C=C(OC)C(OCCCN4CCC(CO)CC4)=C3)=NN1)NC5=CC=CC(OC)=C5

> <standard_relation>
=

> <Publication_ID>
nan

> <predicted_activity_value>
8.065501548756432

> <actual_activity_value>
8.045757490560675

> <Compound>
6

> <standard_units>
nM

> hash
17619100297895759804

$$$$
6_
XXILIB    08252103493D 0   0.00000     0.00000

 42 46  0     1  0            999 V2000
   -2.9839   -0.2052   -4.7445 O   0  0  0  0  0  2           0  0  0
   -0.3882   -0.2093   -4.9482 O   0  0  0  0  0  2           0  0  0
    7.7128    3.8622    6.1875 O   0  0  0  0  0  2           0  0  0
    5.8931   -0.1992    4.4178 O   0  0  0  0  0  2           0  0  0
   -8.2963    7.3887   -4.0907 O   0  0  0  0  0  2           0  0  0
    3.0970   -1.5042    2.6081 N   0  0  0  0  0  3           0  0  0
    1.9189   -1.1854    2.0532 N   0  0  0  0  0  3           0  0  0
   -0.6495    0.0000    1.1904 N   0  0  0  0  0  3           0  0  0
   -2.7540   -0.0514    0.0452 N   0  0  0  0  0  3           0  0  0
    1.4152    0.0000    0.0000 N   0  0  0  0  0  3           0  0  0
    6.6341    0.8281    2.4686 N   0  0  0  0  0  3           0  0  0
   -6.1311    2.8716   -5.3946 N   0  0  1  0  0  3           0  0  0
   -2.2871   -0.1609   -3.5701 C   0  0  0  0  0  4           0  0  0
   -0.8932   -0.1635   -3.6794 C   0  0  0  0  0  4           0  0  0
    7.6750    3.4864    4.8743 C   0  0  0  0  0  4           0  0  0
   -1.9881   -0.0196    1.1450 C   0  0  0  0  0  4           0  0  0
    2.2520   -0.5354    0.9274 C   0  0  0  0  0  4           0  0  0
    0.0000    0.0000    0.0000 C   0  0  0  0  0  4           0  0  0
   -2.1162   -0.0763   -1.1322 C   0  0  0  0  0  4           0  0  0
    4.1831   -1.0863    1.8939 C   0  0  0  0  0  4           0  0  0
    7.1612    2.0157    3.0096 C   0  0  0  0  0  4           0  0  0
   -0.7114   -0.0618   -1.2270 C   0  0  0  0  0  4           0  0  0
   -2.8756   -0.1227   -2.2995 C   0  0  0  0  0  4           0  0  0
    7.1422    2.2865    4.3868 C   0  0  0  0  0  4           0  0  0
   -0.1176   -0.1149   -2.5151 C   0  0  0  0  0  4           0  0  0
    8.2316    4.4062    3.9798 C   0  0  0  0  0  4           0  0  0
    3.6628   -0.4542    0.7875 C   0  0  0  0  0  4           0  0  0
    7.7187    2.9461    2.1262 C   0  0  0  0  0  4           0  0  0
    8.2522    4.1378    2.6120 C   0  0  0  0  0  4           0  0  0
    6.0486   -0.1927    3.1973 C   0  0  0  0  0  4           0  0  0
   -4.2574    0.4402   -4.7230 C   0  0  0  0  0  4           0  0  0
   -6.9774    6.8735   -3.9653 C   0  0  0  0  0  4           0  0  0
    1.0348   -0.2111   -5.0380 C   0  0  0  0  0  4           0  0  0
    7.1529    2.9261    7.1057 C   0  0  0  0  0  4           0  0  0
   -5.9153    1.6890   -6.2312 C   0  0  0  0  0  4           0  0  0
   -5.1427    3.9228   -5.6840 C   0  0  0  0  0  4           0  0  0
   -7.5001    3.3768   -5.5831 C   0  0  0  0  0  4           0  0  0
    5.5780   -1.3390    2.3312 C   0  0  0  0  0  4           0  0  0
   -6.7682    5.7059   -4.9195 C   0  0  1  0  0  4           0  0  0
   -4.5645    0.9682   -6.1178 C   0  0  0  0  0  4           0  0  0
   -5.3488    5.1464   -4.7889 C   0  0  0  0  0  4           0  0  0
   -7.7850    4.5814   -4.6835 C   0  0  0  0  0  4           0  0  0
  1 13  1  0     0  0
  1 31  1  0     0  0
  2 14  1  0     0  0
  2 33  1  0     0  0
  3 15  1  0     0  0
  3 34  1  0     0  0
  4 30  2  0     0  0
  5 32  1  0     0  0
  6  7  1  0     0  0
  6 20  1  0     0  0
  7 17  2  0     0  0
  8 16  1  0     0  0
  8 18  2  0     0  0
  9 16  2  0     0  0
  9 19  1  0     0  0
 10 17  1  0     0  0
 10 18  1  0     0  0
 11 21  1  0     0  0
 11 30  1  0     0  0
 12 35  1  0     0  0
 12 36  1  0     0  0
 12 37  1  0     0  0
 13 14  1  0     0  0
 13 23  2  0     0  0
 14 25  2  0     0  0
 15 24  2  0     0  0
 15 26  1  0     0  0
 17 27  1  0     0  0
 18 22  1  0     0  0
 19 22  2  0     0  0
 19 23  1  0     0  0
 20 27  2  0     0  0
 20 38  1  0     0  0
 21 24  1  0     0  0
 21 28  2  0     0  0
 22 25  1  0     0  0
 26 29  2  0     0  0
 28 29  1  0     0  0
 30 38  1  0     0  0
 31 40  1  0     0  0
 32 39  1  0     0  0
 35 40  1  0     0  0
 36 41  1  0     0  0
 37 42  1  0     0  0
 39 41  1  0     0  0
 39 42  1  0     0  0
M  END
> <standard_type>
pIC50

> <# Confs.>
25

> <canonical_smiles>
O=C(CC1=CC(NC2=NC=NC3=C2C=C(OC)C(OCCCN4CCC(CO)CC4)=C3)=NN1)NC5=CC=CC(OC)=C5

> <standard_relation>
=

> <Publication_ID>
nan

> <predicted_activity_value>
8.065501548756432

> <actual_activity_value>
8.045757490560675

> <Compound>
6

> <standard_units>
nM

> hash
17619100297895759804

$$$$
6_
XXILIB    08252103493D 0   0.00000     0.00000

 42 46  0     1  0            999 V2000
   -2.9839   -0.2052   -4.7445 O   0  0  0  0  0  2           0  0  0
   -0.3882   -0.2093   -4.9482 O   0  0  0  0  0  2           0  0  0
    9.5916   -3.6879    0.0896 O   0  0  0  0  0  2           0  0  0
    7.0307    0.3091    0.7253 O   0  0  0  0  0  2           0  0  0
  -11.1789    4.1704   -4.6304 O   0  0  0  0  0  2           0  0  0
    3.0970    1.5066    2.6067 N   0  0  0  0  0  3           0  0  0
    1.9189    1.1854    2.0532 N   0  0  0  0  0  3           0  0  0
   -0.6495   -0.0000    1.1904 N   0  0  0  0  0  3           0  0  0
   -2.7540   -0.0514    0.0452 N   0  0  0  0  0  3           0  0  0
    1.4152    0.0000    0.0000 N   0  0  0  0  0  3           0  0  0
    6.5603   -0.8245    2.6995 N   0  0  0  0  0  3           0  0  0
   -7.2480    0.8891   -5.3880 N   0  0  1  0  0  3           0  0  0
   -2.2871   -0.1609   -3.5701 C   0  0  0  0  0  4           0  0  0
   -0.8932   -0.1635   -3.6794 C   0  0  0  0  0  4           0  0  0
    8.8151   -3.3768    1.1699 C   0  0  0  0  0  4           0  0  0
   -1.9881   -0.0196    1.1450 C   0  0  0  0  0  4           0  0  0
    2.2520    0.5354    0.9274 C   0  0  0  0  0  4           0  0  0
    0.0000    0.0000    0.0000 C   0  0  0  0  0  4           0  0  0
   -2.1162   -0.0763   -1.1322 C   0  0  0  0  0  4           0  0  0
    4.1831    1.0971    1.8877 C   0  0  0  0  0  4           0  0  0
    7.3182   -1.9920    2.4914 C   0  0  0  0  0  4           0  0  0
   -0.7114   -0.0618   -1.2270 C   0  0  0  0  0  4           0  0  0
   -2.8756   -0.1227   -2.2995 C   0  0  0  0  0  4           0  0  0
    8.0824   -2.1942    1.3314 C   0  0  0  0  0  4           0  0  0
   -0.1176   -0.1149   -2.5151 C   0  0  0  0  0  4           0  0  0
    8.7848   -4.3481    2.1758 C   0  0  0  0  0  4           0  0  0
    3.6628    0.4549    0.7871 C   0  0  0  0  0  4           0  0  0
    7.2952   -2.9734    3.4879 C   0  0  0  0  0  4           0  0  0
    8.0274   -4.1478    3.3288 C   0  0  0  0  0  4           0  0  0
    6.4718    0.2400    1.8192 C   0  0  0  0  0  4           0  0  0
   -4.4054   -0.2017   -4.6110 C   0  0  0  0  0  4           0  0  0
   -9.7675    4.3377   -4.6575 C   0  0  0  0  0  4           0  0  0
    1.0348   -0.2111   -5.0380 C   0  0  0  0  0  4           0  0  0
    9.6322   -2.6990   -0.9368 C   0  0  0  0  0  4           0  0  0
   -6.5650   -0.2553   -5.9953 C   0  0  0  0  0  4           0  0  0
   -6.8960    2.1472   -6.0656 C   0  0  0  0  0  4           0  0  0
   -8.7034    0.6745   -5.4099 C   0  0  0  0  0  4           0  0  0
    5.5780    1.3494    2.3253 C   0  0  0  0  0  4           0  0  0
   -9.1063    3.1720   -5.3796 C   0  0  1  0  0  4           0  0  0
   -5.0297   -0.2538   -5.9989 C   0  0  0  0  0  4           0  0  0
   -7.5853    3.3466   -5.4121 C   0  0  0  0  0  4           0  0  0
   -9.4528    1.8244   -4.7333 C   0  0  0  0  0  4           0  0  0
  1 13  1  0     0  0
  1 31  1  0     0  0
  2 14  1  0     0  0
  2 33  1  0     0  0
  3 15  1  0     0  0
  3 34  1  0     0  0
  4 30  2  0     0  0
  5 32  1  0     0  0
  6  7  1  0     0  0
  6 20  1  0     0  0
  7 17  2  0     0  0
  8 16  1  0     0  0
  8 18  2  0     0  0
  9 16  2  0     0  0
  9 19  1  0     0  0
 10 17  1  0     0  0
 10 18  1  0     0  0
 11 21  1  0     0  0
 11 30  1  0     0  0
 12 35  1  0     0  0
 12 36  1  0     0  0
 12 37  1  0     0  0
 13 14  1  0     0  0
 13 23  2  0     0  0
 14 25  2  0     0  0
 15 24  2  0     0  0
 15 26  1  0     0  0
 17 27  1  0     0  0
 18 22  1  0     0  0
 19 22  2  0     0  0
 19 23  1  0     0  0
 20 27  2  0     0  0
 20 38  1  0     0  0
 21 24  1  0     0  0
 21 28  2  0     0  0
 22 25  1  0     0  0
 26 29  2  0     0  0
 28 29  1  0     0  0
 30 38  1  0     0  0
 31 40  1  0     0  0
 32 39  1  0     0  0
 35 40  1  0     0  0
 36 41  1  0     0  0
 37 42  1  0     0  0
 39 41  1  0     0  0
 39 42  1  0     0  0
M  END
> <standard_type>
pIC50

> <# Confs.>
25

> <canonical_smiles>
O=C(CC1=CC(NC2=NC=NC3=C2C=C(OC)C(OCCCN4CCC(CO)CC4)=C3)=NN1)NC5=CC=CC(OC)=C5

> <standard_relation>
=

> <Publication_ID>
nan

> <predicted_activity_value>
8.065501548756432

> <actual_activity_value>
8.045757490560675

> <Compound>
6

> <standard_units>
nM

> hash
17619100297895759804

$$$$
6_
XXILIB    08252103493D 0   0.00000     0.00000

 42 46  0     1  0            999 V2000
   -2.9839   -0.2052   -4.7445 O   0  0  0  0  0  2           0  0  0
   -0.3882   -0.2093   -4.9482 O   0  0  0  0  0  2           0  0  0
    7.7446   -7.2510   -0.2834 O   0  0  0  0  0  2           0  0  0
    5.8984   -3.7156    2.3683 O   0  0  0  0  0  2           0  0  0
   -8.2963    7.3887   -4.0907 O   0  0  0  0  0  2           0  0  0
    3.0970   -1.5042    2.6081 N   0  0  0  0  0  3           0  0  0
    1.9189   -1.1854    2.0532 N   0  0  0  0  0  3           0  0  0
   -0.6495    0.0000    1.1904 N   0  0  0  0  0  3           0  0  0
   -2.7540   -0.0514    0.0452 N   0  0  0  0  0  3           0  0  0
    1.4152   -0.0000    0.0000 N   0  0  0  0  0  3           0  0  0
    6.6716   -2.5197    0.5310 N   0  0  0  0  0  3           0  0  0
   -6.1311    2.8716   -5.3946 N   0  0  1  0  0  3           0  0  0
   -2.2871   -0.1609   -3.5701 C   0  0  0  0  0  4           0  0  0
   -0.8932   -0.1635   -3.6794 C   0  0  0  0  0  4           0  0  0
    7.7229   -5.9206   -0.5943 C   0  0  0  0  0  4           0  0  0
   -1.9881   -0.0196    1.1450 C   0  0  0  0  0  4           0  0  0
    2.2520   -0.5354    0.9274 C   0  0  0  0  0  4           0  0  0
    0.0000    0.0000    0.0000 C   0  0  0  0  0  4           0  0  0
   -2.1162   -0.0763   -1.1322 C   0  0  0  0  0  4           0  0  0
    4.1831   -1.0863    1.8939 C   0  0  0  0  0  4           0  0  0
    7.2097   -3.5734   -0.2312 C   0  0  0  0  0  4           0  0  0
   -0.7114   -0.0618   -1.2270 C   0  0  0  0  0  4           0  0  0
   -2.8756   -0.1227   -2.2995 C   0  0  0  0  0  4           0  0  0
    7.1679   -4.9089    0.1992 C   0  0  0  0  0  4           0  0  0
   -0.1176   -0.1149   -2.5151 C   0  0  0  0  0  4           0  0  0
    8.3107   -5.5900   -1.8196 C   0  0  0  0  0  4           0  0  0
    3.6628   -0.4542    0.7875 C   0  0  0  0  0  4           0  0  0
    7.8032   -3.2571   -1.4577 C   0  0  0  0  0  4           0  0  0
    8.3517   -4.2642   -2.2487 C   0  0  0  0  0  4           0  0  0
    6.0523   -2.6566    1.7613 C   0  0  0  0  0  4           0  0  0
   -4.2574    0.4402   -4.7230 C   0  0  0  0  0  4           0  0  0
   -6.9774    6.8735   -3.9653 C   0  0  0  0  0  4           0  0  0
    1.0348   -0.2111   -5.0380 C   0  0  0  0  0  4           0  0  0
    7.1412   -7.5959    0.9615 C   0  0  0  0  0  4           0  0  0
   -5.9153    1.6890   -6.2312 C   0  0  0  0  0  4           0  0  0
   -5.1427    3.9228   -5.6840 C   0  0  0  0  0  4           0  0  0
   -7.5001    3.3768   -5.5831 C   0  0  0  0  0  4           0  0  0
    5.5780   -1.3390    2.3312 C   0  0  0  0  0  4           0  0  0
   -6.7682    5.7059   -4.9195 C   0  0  1  0  0  4           0  0  0
   -4.5645    0.9682   -6.1178 C   0  0  0  0  0  4           0  0  0
   -5.3488    5.1464   -4.7889 C   0  0  0  0  0  4           0  0  0
   -7.7850    4.5814   -4.6835 C   0  0  0  0  0  4           0  0  0
  1 13  1  0     0  0
  1 31  1  0     0  0
  2 14  1  0     0  0
  2 33  1  0     0  0
  3 15  1  0     0  0
  3 34  1  0     0  0
  4 30  2  0     0  0
  5 32  1  0     0  0
  6  7  1  0     0  0
  6 20  1  0     0  0
  7 17  2  0     0  0
  8 16  1  0     0  0
  8 18  2  0     0  0
  9 16  2  0     0  0
  9 19  1  0     0  0
 10 17  1  0     0  0
 10 18  1  0     0  0
 11 21  1  0     0  0
 11 30  1  0     0  0
 12 35  1  0     0  0
 12 36  1  0     0  0
 12 37  1  0     0  0
 13 14  1  0     0  0
 13 23  2  0     0  0
 14 25  2  0     0  0
 15 24  2  0     0  0
 15 26  1  0     0  0
 17 27  1  0     0  0
 18 22  1  0     0  0
 19 22  2  0     0  0
 19 23  1  0     0  0
 20 27  2  0     0  0
 20 38  1  0     0  0
 21 24  1  0     0  0
 21 28  2  0     0  0
 22 25  1  0     0  0
 26 29  2  0     0  0
 28 29  1  0     0  0
 30 38  1  0     0  0
 31 40  1  0     0  0
 32 39  1  0     0  0
 35 40  1  0     0  0
 36 41  1  0     0  0
 37 42  1  0     0  0
 39 41  1  0     0  0
 39 42  1  0     0  0
M  END
> <standard_type>
pIC50

> <# Confs.>
25

> <canonical_smiles>
O=C(CC1=CC(NC2=NC=NC3=C2C=C(OC)C(OCCCN4CCC(CO)CC4)=C3)=NN1)NC5=CC=CC(OC)=C5

> <standard_relation>
=

> <Publication_ID>
nan

> <predicted_activity_value>
8.065501548756432

> <actual_activity_value>
8.045757490560675

> <Compound>
6

> <standard_units>
nM

> hash
17619100297895759804

$$$$
6_
XXILIB    08252103493D 0   0.00000     0.00000

 42 46  0     1  0            999 V2000
   -2.9839   -0.2052   -4.7445 O   0  0  0  0  0  2           0  0  0
   -0.3882   -0.2093   -4.9482 O   0  0  0  0  0  2           0  0  0
    7.7446   -3.8710    6.1378 O   0  0  0  0  0  2           0  0  0
    5.8984    0.1932    4.4020 O   0  0  0  0  0  2           0  0  0
  -12.1738   -0.3348   -6.1031 O   0  0  0  0  0  2           0  0  0
    3.0970    1.5066    2.6067 N   0  0  0  0  0  3           0  0  0
    1.9189    1.1854    2.0532 N   0  0  0  0  0  3           0  0  0
   -0.6495   -0.0000    1.1904 N   0  0  0  0  0  3           0  0  0
   -2.7540   -0.0514    0.0452 N   0  0  0  0  0  3           0  0  0
    1.4152    0.0000    0.0000 N   0  0  0  0  0  3           0  0  0
    6.6716   -0.8000    2.4476 N   0  0  0  0  0  3           0  0  0
   -7.1225   -1.4299   -5.8244 N   0  0  1  0  0  3           0  0  0
   -2.2871   -0.1609   -3.5701 C   0  0  0  0  0  4           0  0  0
   -0.8932   -0.1635   -3.6794 C   0  0  0  0  0  4           0  0  0
    7.7229   -3.4749    4.8302 C   0  0  0  0  0  4           0  0  0
   -1.9881   -0.0196    1.1450 C   0  0  0  0  0  4           0  0  0
    2.2520    0.5354    0.9274 C   0  0  0  0  0  4           0  0  0
    0.0000    0.0000    0.0000 C   0  0  0  0  0  4           0  0  0
   -2.1162   -0.0763   -1.1322 C   0  0  0  0  0  4           0  0  0
    4.1831    1.0971    1.8877 C   0  0  0  0  0  4           0  0  0
    7.2097   -1.9869    2.9791 C   0  0  0  0  0  4           0  0  0
   -0.7114   -0.0618   -1.2270 C   0  0  0  0  0  4           0  0  0
   -2.8756   -0.1227   -2.2995 C   0  0  0  0  0  4           0  0  0
    7.1679   -2.2819    4.3508 C   0  0  0  0  0  4           0  0  0
   -0.1176   -0.1149   -2.5151 C   0  0  0  0  0  4           0  0  0
    8.3107   -4.3708    3.9313 C   0  0  0  0  0  4           0  0  0
    3.6628    0.4549    0.7871 C   0  0  0  0  0  4           0  0  0
    7.8032   -2.8910    2.0919 C   0  0  0  0  0  4           0  0  0
    8.3517   -4.0796    2.5686 C   0  0  0  0  0  4           0  0  0
    6.0523    0.1971    3.1813 C   0  0  0  0  0  4           0  0  0
   -4.2560   -0.8498   -4.6753 C   0  0  0  0  0  4           0  0  0
  -11.0043    0.4732   -6.1142 C   0  0  0  0  0  4           0  0  0
    1.0348   -0.2111   -5.0380 C   0  0  0  0  0  4           0  0  0
    7.1412   -2.9652    7.0590 C   0  0  0  0  0  4           0  0  0
   -5.9112   -2.2103   -6.0868 C   0  0  0  0  0  4           0  0  0
   -7.2721   -0.3284   -6.7888 C   0  0  0  0  0  4           0  0  0
   -8.3017   -2.3095   -5.8503 C   0  0  0  0  0  4           0  0  0
    5.5780    1.3494    2.3253 C   0  0  0  0  0  4           0  0  0
   -9.7844   -0.3596   -6.4827 C   0  0  1  0  0  4           0  0  0
   -4.5619   -1.4803   -6.0272 C   0  0  0  0  0  4           0  0  0
   -8.5210    0.5056   -6.4964 C   0  0  0  0  0  4           0  0  0
   -9.5847   -1.5416   -5.5251 C   0  0  0  0  0  4           0  0  0
  1 13  1  0     0  0
  1 31  1  0     0  0
  2 14  1  0     0  0
  2 33  1  0     0  0
  3 15  1  0     0  0
  3 34  1  0     0  0
  4 30  2  0     0  0
  5 32  1  0     0  0
  6  7  1  0     0  0
  6 20  1  0     0  0
  7 17  2  0     0  0
  8 16  1  0     0  0
  8 18  2  0     0  0
  9 16  2  0     0  0
  9 19  1  0     0  0
 10 17  1  0     0  0
 10 18  1  0     0  0
 11 21  1  0     0  0
 11 30  1  0     0  0
 12 35  1  0     0  0
 12 36  1  0     0  0
 12 37  1  0     0  0
 13 14  1  0     0  0
 13 23  2  0     0  0
 14 25  2  0     0  0
 15 24  2  0     0  0
 15 26  1  0     0  0
 17 27  1  0     0  0
 18 22  1  0     0  0
 19 22  2  0     0  0
 19 23  1  0     0  0
 20 27  2  0     0  0
 20 38  1  0     0  0
 21 24  1  0     0  0
 21 28  2  0     0  0
 22 25  1  0     0  0
 26 29  2  0     0  0
 28 29  1  0     0  0
 30 38  1  0     0  0
 31 40  1  0     0  0
 32 39  1  0     0  0
 35 40  1  0     0  0
 36 41  1  0     0  0
 37 42  1  0     0  0
 39 41  1  0     0  0
 39 42  1  0     0  0
M  END
> <standard_type>
pIC50

> <# Confs.>
25

> <canonical_smiles>
O=C(CC1=CC(NC2=NC=NC3=C2C=C(OC)C(OCCCN4CCC(CO)CC4)=C3)=NN1)NC5=CC=CC(OC)=C5

> <standard_relation>
=

> <Publication_ID>
nan

> <predicted_activity_value>
8.065501548756432

> <actual_activity_value>
8.045757490560675

> <Compound>
6

> <standard_units>
nM

> hash
17619100297895759804

$$$$
6_
XXILIB    08252103493D 0   0.00000     0.00000

 42 46  0     1  0            999 V2000
   -2.9839   -0.2052   -4.7445 O   0  0  0  0  0  2           0  0  0
   -0.3882   -0.2093   -4.9482 O   0  0  0  0  0  2           0  0  0
    7.7390    7.2874   -0.2342 O   0  0  0  0  0  2           0  0  0
    5.4763    3.7279    2.0349 O   0  0  0  0  0  2           0  0  0
   -6.0575    7.9194   -4.2493 O   0  0  0  0  0  2           0  0  0
    3.0970    1.5066    2.6067 N   0  0  0  0  0  3           0  0  0
    1.9189    1.1854    2.0532 N   0  0  0  0  0  3           0  0  0
   -0.6495    0.0000    1.1904 N   0  0  0  0  0  3           0  0  0
   -2.7540   -0.0514    0.0452 N   0  0  0  0  0  3           0  0  0
    1.4152    0.0000    0.0000 N   0  0  0  0  0  3           0  0  0
    7.1468    2.5454    0.9327 N   0  0  0  0  0  3           0  0  0
   -6.1311    2.8716   -5.3946 N   0  0  1  0  0  3           0  0  0
   -2.2871   -0.1609   -3.5701 C   0  0  0  0  0  4           0  0  0
   -0.8932   -0.1635   -3.6794 C   0  0  0  0  0  4           0  0  0
    8.0527    5.9583   -0.2793 C   0  0  0  0  0  4           0  0  0
   -1.9881   -0.0196    1.1450 C   0  0  0  0  0  4           0  0  0
    2.2520    0.5354    0.9274 C   0  0  0  0  0  4           0  0  0
    0.0000    0.0000    0.0000 C   0  0  0  0  0  4           0  0  0
   -2.1162   -0.0763   -1.1322 C   0  0  0  0  0  4           0  0  0
    4.1831    1.0971    1.8877 C   0  0  0  0  0  4           0  0  0
    7.7957    3.6061    0.2734 C   0  0  0  0  0  4           0  0  0
   -0.7114   -0.0618   -1.2270 C   0  0  0  0  0  4           0  0  0
   -2.8756   -0.1227   -2.2995 C   0  0  0  0  0  4           0  0  0
    7.3759    4.9393    0.4027 C   0  0  0  0  0  4           0  0  0
   -0.1176   -0.1149   -2.5151 C   0  0  0  0  0  4           0  0  0
    9.1523    5.6371   -1.0817 C   0  0  0  0  0  4           0  0  0
    3.6628    0.4549    0.7871 C   0  0  0  0  0  4           0  0  0
    8.8954    3.2993   -0.5348 C   0  0  0  0  0  4           0  0  0
    9.5709    4.3136   -1.2098 C   0  0  0  0  0  4           0  0  0
    6.0486    2.6726    1.7656 C   0  0  0  0  0  4           0  0  0
   -4.2574    0.4402   -4.7230 C   0  0  0  0  0  4           0  0  0
   -6.9774    6.8735   -3.9653 C   0  0  0  0  0  4           0  0  0
    1.0348   -0.2111   -5.0380 C   0  0  0  0  0  4           0  0  0
    6.6229    7.6227    0.5872 C   0  0  0  0  0  4           0  0  0
   -5.9153    1.6890   -6.2312 C   0  0  0  0  0  4           0  0  0
   -5.1427    3.9228   -5.6840 C   0  0  0  0  0  4           0  0  0
   -7.5001    3.3768   -5.5831 C   0  0  0  0  0  4           0  0  0
    5.5780    1.3494    2.3253 C   0  0  0  0  0  4           0  0  0
   -6.7682    5.7059   -4.9195 C   0  0  1  0  0  4           0  0  0
   -4.5645    0.9682   -6.1178 C   0  0  0  0  0  4           0  0  0
   -5.3488    5.1464   -4.7889 C   0  0  0  0  0  4           0  0  0
   -7.7850    4.5814   -4.6835 C   0  0  0  0  0  4           0  0  0
  1 13  1  0     0  0
  1 31  1  0     0  0
  2 14  1  0     0  0
  2 33  1  0     0  0
  3 15  1  0     0  0
  3 34  1  0     0  0
  4 30  2  0     0  0
  5 32  1  0     0  0
  6  7  1  0     0  0
  6 20  1  0     0  0
  7 17  2  0     0  0
  8 16  1  0     0  0
  8 18  2  0     0  0
  9 16  2  0     0  0
  9 19  1  0     0  0
 10 17  1  0     0  0
 10 18  1  0     0  0
 11 21  1  0     0  0
 11 30  1  0     0  0
 12 35  1  0     0  0
 12 36  1  0     0  0
 12 37  1  0     0  0
 13 14  1  0     0  0
 13 23  2  0     0  0
 14 25  2  0     0  0
 15 24  2  0     0  0
 15 26  1  0     0  0
 17 27  1  0     0  0
 18 22  1  0     0  0
 19 22  2  0     0  0
 19 23  1  0     0  0
 20 27  2  0     0  0
 20 38  1  0     0  0
 21 24  1  0     0  0
 21 28  2  0     0  0
 22 25  1  0     0  0
 26 29  2  0     0  0
 28 29  1  0     0  0
 30 38  1  0     0  0
 31 40  1  0     0  0
 32 39  1  0     0  0
 35 40  1  0     0  0
 36 41  1  0     0  0
 37 42  1  0     0  0
 39 41  1  0     0  0
 39 42  1  0     0  0
M  END
> <standard_type>
pIC50

> <# Confs.>
25

> <canonical_smiles>
O=C(CC1=CC(NC2=NC=NC3=C2C=C(OC)C(OCCCN4CCC(CO)CC4)=C3)=NN1)NC5=CC=CC(OC)=C5

> <standard_relation>
=

> <Publication_ID>
nan

> <predicted_activity_value>
8.065501548756432

> <actual_activity_value>
8.045757490560675

> <Compound>
6

> <standard_units>
nM

> hash
17619100297895759804

$$$$
6_
XXILIB    08252103493D 0   0.00000     0.00000

 42 46  0     1  0            999 V2000
   -2.9839   -0.2052   -4.7445 O   0  0  0  0  0  2           0  0  0
   -0.3882   -0.2093   -4.9482 O   0  0  0  0  0  2           0  0  0
    7.7446   -7.2510   -0.2834 O   0  0  0  0  0  2           0  0  0
    5.8984   -3.7156    2.3683 O   0  0  0  0  0  2           0  0  0
  -12.1738   -0.3348   -6.1031 O   0  0  0  0  0  2           0  0  0
    3.0970   -1.5042    2.6081 N   0  0  0  0  0  3           0  0  0
    1.9189   -1.1854    2.0532 N   0  0  0  0  0  3           0  0  0
   -0.6495   -0.0000    1.1904 N   0  0  0  0  0  3           0  0  0
   -2.7540   -0.0514    0.0452 N   0  0  0  0  0  3           0  0  0
    1.4152   -0.0000    0.0000 N   0  0  0  0  0  3           0  0  0
    6.6716   -2.5197    0.5310 N   0  0  0  0  0  3           0  0  0
   -7.1225   -1.4299   -5.8244 N   0  0  1  0  0  3           0  0  0
   -2.2871   -0.1609   -3.5701 C   0  0  0  0  0  4           0  0  0
   -0.8932   -0.1635   -3.6794 C   0  0  0  0  0  4           0  0  0
    7.7229   -5.9206   -0.5943 C   0  0  0  0  0  4           0  0  0
   -1.9881   -0.0196    1.1450 C   0  0  0  0  0  4           0  0  0
    2.2520   -0.5354    0.9274 C   0  0  0  0  0  4           0  0  0
    0.0000    0.0000    0.0000 C   0  0  0  0  0  4           0  0  0
   -2.1162   -0.0763   -1.1322 C   0  0  0  0  0  4           0  0  0
    4.1831   -1.0863    1.8939 C   0  0  0  0  0  4           0  0  0
    7.2097   -3.5734   -0.2312 C   0  0  0  0  0  4           0  0  0
   -0.7114   -0.0618   -1.2270 C   0  0  0  0  0  4           0  0  0
   -2.8756   -0.1227   -2.2995 C   0  0  0  0  0  4           0  0  0
    7.1679   -4.9089    0.1992 C   0  0  0  0  0  4           0  0  0
   -0.1176   -0.1149   -2.5151 C   0  0  0  0  0  4           0  0  0
    8.3107   -5.5900   -1.8196 C   0  0  0  0  0  4           0  0  0
    3.6628   -0.4542    0.7875 C   0  0  0  0  0  4           0  0  0
    7.8032   -3.2571   -1.4577 C   0  0  0  0  0  4           0  0  0
    8.3517   -4.2642   -2.2487 C   0  0  0  0  0  4           0  0  0
    6.0523   -2.6566    1.7613 C   0  0  0  0  0  4           0  0  0
   -4.2560   -0.8498   -4.6753 C   0  0  0  0  0  4           0  0  0
  -11.0043    0.4732   -6.1142 C   0  0  0  0  0  4           0  0  0
    1.0348   -0.2111   -5.0380 C   0  0  0  0  0  4           0  0  0
    7.1412   -7.5959    0.9615 C   0  0  0  0  0  4           0  0  0
   -5.9112   -2.2103   -6.0868 C   0  0  0  0  0  4           0  0  0
   -7.2721   -0.3284   -6.7888 C   0  0  0  0  0  4           0  0  0
   -8.3017   -2.3095   -5.8503 C   0  0  0  0  0  4           0  0  0
    5.5780   -1.3390    2.3312 C   0  0  0  0  0  4           0  0  0
   -9.7844   -0.3596   -6.4827 C   0  0  1  0  0  4           0  0  0
   -4.5619   -1.4803   -6.0272 C   0  0  0  0  0  4           0  0  0
   -8.5210    0.5056   -6.4964 C   0  0  0  0  0  4           0  0  0
   -9.5847   -1.5416   -5.5251 C   0  0  0  0  0  4           0  0  0
  1 13  1  0     0  0
  1 31  1  0     0  0
  2 14  1  0     0  0
  2 33  1  0     0  0
  3 15  1  0     0  0
  3 34  1  0     0  0
  4 30  2  0     0  0
  5 32  1  0     0  0
  6  7  1  0     0  0
  6 20  1  0     0  0
  7 17  2  0     0  0
  8 16  1  0     0  0
  8 18  2  0     0  0
  9 16  2  0     0  0
  9 19  1  0     0  0
 10 17  1  0     0  0
 10 18  1  0     0  0
 11 21  1  0     0  0
 11 30  1  0     0  0
 12 35  1  0     0  0
 12 36  1  0     0  0
 12 37  1  0     0  0
 13 14  1  0     0  0
 13 23  2  0     0  0
 14 25  2  0     0  0
 15 24  2  0     0  0
 15 26  1  0     0  0
 17 27  1  0     0  0
 18 22  1  0     0  0
 19 22  2  0     0  0
 19 23  1  0     0  0
 20 27  2  0     0  0
 20 38  1  0     0  0
 21 24  1  0     0  0
 21 28  2  0     0  0
 22 25  1  0     0  0
 26 29  2  0     0  0
 28 29  1  0     0  0
 30 38  1  0     0  0
 31 40  1  0     0  0
 32 39  1  0     0  0
 35 40  1  0     0  0
 36 41  1  0     0  0
 37 42  1  0     0  0
 39 41  1  0     0  0
 39 42  1  0     0  0
M  END
> <standard_type>
pIC50

> <# Confs.>
25

> <canonical_smiles>
O=C(CC1=CC(NC2=NC=NC3=C2C=C(OC)C(OCCCN4CCC(CO)CC4)=C3)=NN1)NC5=CC=CC(OC)=C5

> <standard_relation>
=

> <Publication_ID>
nan

> <predicted_activity_value>
8.065501548756432

> <actual_activity_value>
8.045757490560675

> <Compound>
6

> <standard_units>
nM

> hash
17619100297895759804

$$$$
6_
XXILIB    08252103493D 0   0.00000     0.00000

 42 46  0     1  0            999 V2000
   -2.9839   -0.2052   -4.7445 O   0  0  0  0  0  2           0  0  0
   -0.3882   -0.2093   -4.9482 O   0  0  0  0  0  2           0  0  0
    7.7446   -3.8710    6.1378 O   0  0  0  0  0  2           0  0  0
    5.8984    0.1932    4.4020 O   0  0  0  0  0  2           0  0  0
  -12.2289    0.0159   -3.8509 O   0  0  0  0  0  2           0  0  0
    3.0970    1.5066    2.6067 N   0  0  0  0  0  3           0  0  0
    1.9189    1.1854    2.0532 N   0  0  0  0  0  3           0  0  0
   -0.6495   -0.0000    1.1904 N   0  0  0  0  0  3           0  0  0
   -2.7540   -0.0514    0.0452 N   0  0  0  0  0  3           0  0  0
    1.4152    0.0000    0.0000 N   0  0  0  0  0  3           0  0  0
    6.6716   -0.8000    2.4476 N   0  0  0  0  0  3           0  0  0
   -7.3415   -0.9377   -5.2638 N   0  0  1  0  0  3           0  0  0
   -2.2871   -0.1609   -3.5701 C   0  0  0  0  0  4           0  0  0
   -0.8932   -0.1635   -3.6794 C   0  0  0  0  0  4           0  0  0
    7.7229   -3.4749    4.8302 C   0  0  0  0  0  4           0  0  0
   -1.9881   -0.0196    1.1450 C   0  0  0  0  0  4           0  0  0
    2.2520    0.5354    0.9274 C   0  0  0  0  0  4           0  0  0
    0.0000    0.0000    0.0000 C   0  0  0  0  0  4           0  0  0
   -2.1162   -0.0763   -1.1322 C   0  0  0  0  0  4           0  0  0
    4.1831    1.0971    1.8877 C   0  0  0  0  0  4           0  0  0
    7.2097   -1.9869    2.9791 C   0  0  0  0  0  4           0  0  0
   -0.7114   -0.0618   -1.2270 C   0  0  0  0  0  4           0  0  0
   -2.8756   -0.1227   -2.2995 C   0  0  0  0  0  4           0  0  0
    7.1679   -2.2819    4.3508 C   0  0  0  0  0  4           0  0  0
   -0.1176   -0.1149   -2.5151 C   0  0  0  0  0  4           0  0  0
    8.3107   -4.3708    3.9313 C   0  0  0  0  0  4           0  0  0
    3.6628    0.4549    0.7871 C   0  0  0  0  0  4           0  0  0
    7.8032   -2.8910    2.0919 C   0  0  0  0  0  4           0  0  0
    8.3517   -4.0796    2.5686 C   0  0  0  0  0  4           0  0  0
    6.0523    0.1971    3.1813 C   0  0  0  0  0  4           0  0  0
   -4.2560   -0.8498   -4.6753 C   0  0  0  0  0  4           0  0  0
  -11.0309    0.7773   -3.7738 C   0  0  0  0  0  4           0  0  0
    1.0348   -0.2111   -5.0380 C   0  0  0  0  0  4           0  0  0
    7.1412   -2.9652    7.0590 C   0  0  0  0  0  4           0  0  0
   -6.2823   -1.4813   -6.1169 C   0  0  0  0  0  4           0  0  0
   -7.6129    0.4743   -5.5772 C   0  0  0  0  0  4           0  0  0
   -8.5624   -1.7468   -5.4024 C   0  0  0  0  0  4           0  0  0
    5.5780    1.3494    2.3253 C   0  0  0  0  0  4           0  0  0
   -9.9909    0.2347   -4.7441 C   0  0  1  0  0  4           0  0  0
   -4.9001   -0.8159   -6.0546 C   0  0  0  0  0  4           0  0  0
   -8.6978    1.0512   -4.6656 C   0  0  0  0  0  4           0  0  0
   -9.6785   -1.2446   -4.4838 C   0  0  0  0  0  4           0  0  0
  1 13  1  0     0  0
  1 31  1  0     0  0
  2 14  1  0     0  0
  2 33  1  0     0  0
  3 15  1  0     0  0
  3 34  1  0     0  0
  4 30  2  0     0  0
  5 32  1  0     0  0
  6  7  1  0     0  0
  6 20  1  0     0  0
  7 17  2  0     0  0
  8 16  1  0     0  0
  8 18  2  0     0  0
  9 16  2  0     0  0
  9 19  1  0     0  0
 10 17  1  0     0  0
 10 18  1  0     0  0
 11 21  1  0     0  0
 11 30  1  0     0  0
 12 35  1  0     0  0
 12 36  1  0     0  0
 12 37  1  0     0  0
 13 14  1  0     0  0
 13 23  2  0     0  0
 14 25  2  0     0  0
 15 24  2  0     0  0
 15 26  1  0     0  0
 17 27  1  0     0  0
 18 22  1  0     0  0
 19 22  2  0     0  0
 19 23  1  0     0  0
 20 27  2  0     0  0
 20 38  1  0     0  0
 21 24  1  0     0  0
 21 28  2  0     0  0
 22 25  1  0     0  0
 26 29  2  0     0  0
 28 29  1  0     0  0
 30 38  1  0     0  0
 31 40  1  0     0  0
 32 39  1  0     0  0
 35 40  1  0     0  0
 36 41  1  0     0  0
 37 42  1  0     0  0
 39 41  1  0     0  0
 39 42  1  0     0  0
M  END
> <standard_type>
pIC50

> <# Confs.>
25

> <canonical_smiles>
O=C(CC1=CC(NC2=NC=NC3=C2C=C(OC)C(OCCCN4CCC(CO)CC4)=C3)=NN1)NC5=CC=CC(OC)=C5

> <standard_relation>
=

> <Publication_ID>
nan

> <predicted_activity_value>
8.065501548756432

> <actual_activity_value>
8.045757490560675

> <Compound>
6

> <standard_units>
nM

> hash
17619100297895759804

$$$$
6_
XXILIB    08252103493D 0   0.00000     0.00000

 42 46  0     1  0            999 V2000
   -2.9839   -0.2052   -4.7445 O   0  0  0  0  0  2           0  0  0
   -0.3882   -0.2093   -4.9482 O   0  0  0  0  0  2           0  0  0
    7.7128    7.2896   -0.2510 O   0  0  0  0  0  2           0  0  0
    5.8931    3.7263    2.3814 O   0  0  0  0  0  2           0  0  0
   -9.2422   -6.1056   -4.8357 O   0  0  0  0  0  2           0  0  0
    3.0970    1.5066    2.6067 N   0  0  0  0  0  3           0  0  0
    1.9189    1.1854    2.0532 N   0  0  0  0  0  3           0  0  0
   -0.6495   -0.0000    1.1904 N   0  0  0  0  0  3           0  0  0
   -2.7540   -0.0514    0.0452 N   0  0  0  0  0  3           0  0  0
    1.4152    0.0000    0.0000 N   0  0  0  0  0  3           0  0  0
    6.6341    2.5519    0.5172 N   0  0  0  0  0  3           0  0  0
   -7.2457   -1.3531   -5.3050 N   0  0  1  0  0  3           0  0  0
   -2.2871   -0.1609   -3.5701 C   0  0  0  0  0  4           0  0  0
   -0.8932   -0.1635   -3.6794 C   0  0  0  0  0  4           0  0  0
    7.6750    5.9645   -0.5822 C   0  0  0  0  0  4           0  0  0
   -1.9881   -0.0196    1.1450 C   0  0  0  0  0  4           0  0  0
    2.2520    0.5354    0.9274 C   0  0  0  0  0  4           0  0  0
    0.0000    0.0000    0.0000 C   0  0  0  0  0  4           0  0  0
   -2.1162   -0.0763   -1.1322 C   0  0  0  0  0  4           0  0  0
    4.1831    1.0971    1.8877 C   0  0  0  0  0  4           0  0  0
    7.1612    3.6142   -0.2409 C   0  0  0  0  0  4           0  0  0
   -0.7114   -0.0618   -1.2270 C   0  0  0  0  0  4           0  0  0
   -2.8756   -0.1227   -2.2995 C   0  0  0  0  0  4           0  0  0
    7.1422    4.9423    0.2132 C   0  0  0  0  0  4           0  0  0
   -0.1176   -0.1149   -2.5151 C   0  0  0  0  0  4           0  0  0
    8.2316    5.6497   -1.8260 C   0  0  0  0  0  4           0  0  0
    3.6628    0.4549    0.7871 C   0  0  0  0  0  4           0  0  0
    7.7187    3.3144   -1.4883 C   0  0  0  0  0  4           0  0  0
    8.2522    4.3309   -2.2775 C   0  0  0  0  0  4           0  0  0
    6.0486    2.6726    1.7656 C   0  0  0  0  0  4           0  0  0
   -4.4054   -0.2017   -4.6110 C   0  0  0  0  0  4           0  0  0
   -9.6467   -4.8316   -4.3517 C   0  0  0  0  0  4           0  0  0
    1.0348   -0.2111   -5.0380 C   0  0  0  0  0  4           0  0  0
    7.1529    7.6168    1.0188 C   0  0  0  0  0  4           0  0  0
   -6.5650   -0.2553   -5.9953 C   0  0  0  0  0  4           0  0  0
   -8.7086   -1.2161   -5.3885 C   0  0  0  0  0  4           0  0  0
   -6.8099   -2.6433   -5.8621 C   0  0  0  0  0  4           0  0  0
    5.5780    1.3494    2.3253 C   0  0  0  0  0  4           0  0  0
   -8.9878   -3.7212   -5.1582 C   0  0  1  0  0  4           0  0  0
   -5.0297   -0.2538   -5.9989 C   0  0  0  0  0  4           0  0  0
   -9.4199   -2.3460   -4.6413 C   0  0  0  0  0  4           0  0  0
   -7.4571   -3.8207   -5.1296 C   0  0  0  0  0  4           0  0  0
  1 13  1  0     0  0
  1 31  1  0     0  0
  2 14  1  0     0  0
  2 33  1  0     0  0
  3 15  1  0     0  0
  3 34  1  0     0  0
  4 30  2  0     0  0
  5 32  1  0     0  0
  6  7  1  0     0  0
  6 20  1  0     0  0
  7 17  2  0     0  0
  8 16  1  0     0  0
  8 18  2  0     0  0
  9 16  2  0     0  0
  9 19  1  0     0  0
 10 17  1  0     0  0
 10 18  1  0     0  0
 11 21  1  0     0  0
 11 30  1  0     0  0
 12 35  1  0     0  0
 12 36  1  0     0  0
 12 37  1  0     0  0
 13 14  1  0     0  0
 13 23  2  0     0  0
 14 25  2  0     0  0
 15 24  2  0     0  0
 15 26  1  0     0  0
 17 27  1  0     0  0
 18 22  1  0     0  0
 19 22  2  0     0  0
 19 23  1  0     0  0
 20 27  2  0     0  0
 20 38  1  0     0  0
 21 24  1  0     0  0
 21 28  2  0     0  0
 22 25  1  0     0  0
 26 29  2  0     0  0
 28 29  1  0     0  0
 30 38  1  0     0  0
 31 40  1  0     0  0
 32 39  1  0     0  0
 35 40  1  0     0  0
 36 41  1  0     0  0
 37 42  1  0     0  0
 39 41  1  0     0  0
 39 42  1  0     0  0
M  END
> <standard_type>
pIC50

> <# Confs.>
25

> <canonical_smiles>
O=C(CC1=CC(NC2=NC=NC3=C2C=C(OC)C(OCCCN4CCC(CO)CC4)=C3)=NN1)NC5=CC=CC(OC)=C5

> <standard_relation>
=

> <Publication_ID>
nan

> <predicted_activity_value>
8.065501548756432

> <actual_activity_value>
8.045757490560675

> <Compound>
6

> <standard_units>
nM

> hash
17619100297895759804

$$$$
6_
XXILIB    08252103493D 0   0.00000     0.00000

 42 46  0     1  0            999 V2000
   -2.9839   -0.2052   -4.7445 O   0  0  0  0  0  2           0  0  0
   -0.3882   -0.2093   -4.9482 O   0  0  0  0  0  2           0  0  0
    7.7128    3.8622    6.1875 O   0  0  0  0  0  2           0  0  0
    5.8931   -0.1992    4.4178 O   0  0  0  0  0  2           0  0  0
  -12.1738   -0.3348   -6.1031 O   0  0  0  0  0  2           0  0  0
    3.0970   -1.5042    2.6081 N   0  0  0  0  0  3           0  0  0
    1.9189   -1.1854    2.0532 N   0  0  0  0  0  3           0  0  0
   -0.6495   -0.0000    1.1904 N   0  0  0  0  0  3           0  0  0
   -2.7540   -0.0514    0.0452 N   0  0  0  0  0  3           0  0  0
    1.4152    0.0000    0.0000 N   0  0  0  0  0  3           0  0  0
    6.6341    0.8281    2.4686 N   0  0  0  0  0  3           0  0  0
   -7.1225   -1.4299   -5.8244 N   0  0  1  0  0  3           0  0  0
   -2.2871   -0.1609   -3.5701 C   0  0  0  0  0  4           0  0  0
   -0.8932   -0.1635   -3.6794 C   0  0  0  0  0  4           0  0  0
    7.6750    3.4864    4.8743 C   0  0  0  0  0  4           0  0  0
   -1.9881   -0.0196    1.1450 C   0  0  0  0  0  4           0  0  0
    2.2520   -0.5354    0.9274 C   0  0  0  0  0  4           0  0  0
    0.0000    0.0000    0.0000 C   0  0  0  0  0  4           0  0  0
   -2.1162   -0.0763   -1.1322 C   0  0  0  0  0  4           0  0  0
    4.1831   -1.0863    1.8939 C   0  0  0  0  0  4           0  0  0
    7.1612    2.0157    3.0096 C   0  0  0  0  0  4           0  0  0
   -0.7114   -0.0618   -1.2270 C   0  0  0  0  0  4           0  0  0
   -2.8756   -0.1227   -2.2995 C   0  0  0  0  0  4           0  0  0
    7.1422    2.2865    4.3868 C   0  0  0  0  0  4           0  0  0
   -0.1176   -0.1149   -2.5151 C   0  0  0  0  0  4           0  0  0
    8.2316    4.4062    3.9798 C   0  0  0  0  0  4           0  0  0
    3.6628   -0.4542    0.7875 C   0  0  0  0  0  4           0  0  0
    7.7187    2.9461    2.1262 C   0  0  0  0  0  4           0  0  0
    8.2522    4.1378    2.6120 C   0  0  0  0  0  4           0  0  0
    6.0486   -0.1927    3.1973 C   0  0  0  0  0  4           0  0  0
   -4.2560   -0.8498   -4.6753 C   0  0  0  0  0  4           0  0  0
  -11.0043    0.4732   -6.1142 C   0  0  0  0  0  4           0  0  0
    1.0348   -0.2111   -5.0380 C   0  0  0  0  0  4           0  0  0
    7.1529    2.9261    7.1057 C   0  0  0  0  0  4           0  0  0
   -5.9112   -2.2103   -6.0868 C   0  0  0  0  0  4           0  0  0
   -7.2721   -0.3284   -6.7888 C   0  0  0  0  0  4           0  0  0
   -8.3017   -2.3095   -5.8503 C   0  0  0  0  0  4           0  0  0
    5.5780   -1.3390    2.3312 C   0  0  0  0  0  4           0  0  0
   -9.7844   -0.3596   -6.4827 C   0  0  1  0  0  4           0  0  0
   -4.5619   -1.4803   -6.0272 C   0  0  0  0  0  4           0  0  0
   -8.5210    0.5056   -6.4964 C   0  0  0  0  0  4           0  0  0
   -9.5847   -1.5416   -5.5251 C   0  0  0  0  0  4           0  0  0
  1 13  1  0     0  0
  1 31  1  0     0  0
  2 14  1  0     0  0
  2 33  1  0     0  0
  3 15  1  0     0  0
  3 34  1  0     0  0
  4 30  2  0     0  0
  5 32  1  0     0  0
  6  7  1  0     0  0
  6 20  1  0     0  0
  7 17  2  0     0  0
  8 16  1  0     0  0
  8 18  2  0     0  0
  9 16  2  0     0  0
  9 19  1  0     0  0
 10 17  1  0     0  0
 10 18  1  0     0  0
 11 21  1  0     0  0
 11 30  1  0     0  0
 12 35  1  0     0  0
 12 36  1  0     0  0
 12 37  1  0     0  0
 13 14  1  0     0  0
 13 23  2  0     0  0
 14 25  2  0     0  0
 15 24  2  0     0  0
 15 26  1  0     0  0
 17 27  1  0     0  0
 18 22  1  0     0  0
 19 22  2  0     0  0
 19 23  1  0     0  0
 20 27  2  0     0  0
 20 38  1  0     0  0
 21 24  1  0     0  0
 21 28  2  0     0  0
 22 25  1  0     0  0
 26 29  2  0     0  0
 28 29  1  0     0  0
 30 38  1  0     0  0
 31 40  1  0     0  0
 32 39  1  0     0  0
 35 40  1  0     0  0
 36 41  1  0     0  0
 37 42  1  0     0  0
 39 41  1  0     0  0
 39 42  1  0     0  0
M  END
> <standard_type>
pIC50

> <# Confs.>
25

> <canonical_smiles>
O=C(CC1=CC(NC2=NC=NC3=C2C=C(OC)C(OCCCN4CCC(CO)CC4)=C3)=NN1)NC5=CC=CC(OC)=C5

> <standard_relation>
=

> <Publication_ID>
nan

> <predicted_activity_value>
8.065501548756432

> <actual_activity_value>
8.045757490560675

> <Compound>
6

> <standard_units>
nM

> hash
17619100297895759804

$$$$
6_
XXILIB    08252103493D 0   0.00000     0.00000

 42 46  0     1  0            999 V2000
   -2.9839   -0.2052   -4.7445 O   0  0  0  0  0  2           0  0  0
   -0.3882   -0.2093   -4.9482 O   0  0  0  0  0  2           0  0  0
    7.7446   -3.8710    6.1378 O   0  0  0  0  0  2           0  0  0
    5.8984    0.1932    4.4020 O   0  0  0  0  0  2           0  0  0
   -8.4715    7.1183   -6.3478 O   0  0  0  0  0  2           0  0  0
    3.0970    1.5066    2.6067 N   0  0  0  0  0  3           0  0  0
    1.9189    1.1854    2.0532 N   0  0  0  0  0  3           0  0  0
   -0.6495    0.0000    1.1904 N   0  0  0  0  0  3           0  0  0
   -2.7540   -0.0514    0.0452 N   0  0  0  0  0  3           0  0  0
    1.4152    0.0000    0.0000 N   0  0  0  0  0  3           0  0  0
    6.6716   -0.8000    2.4476 N   0  0  0  0  0  3           0  0  0
   -6.3800    2.3994   -5.9599 N   0  0  1  0  0  3           0  0  0
   -2.2871   -0.1609   -3.5701 C   0  0  0  0  0  4           0  0  0
   -0.8932   -0.1635   -3.6794 C   0  0  0  0  0  4           0  0  0
    7.7229   -3.4749    4.8302 C   0  0  0  0  0  4           0  0  0
   -1.9881   -0.0196    1.1450 C   0  0  0  0  0  4           0  0  0
    2.2520    0.5354    0.9274 C   0  0  0  0  0  4           0  0  0
    0.0000    0.0000    0.0000 C   0  0  0  0  0  4           0  0  0
   -2.1162   -0.0763   -1.1322 C   0  0  0  0  0  4           0  0  0
    4.1831    1.0971    1.8877 C   0  0  0  0  0  4           0  0  0
    7.2097   -1.9869    2.9791 C   0  0  0  0  0  4           0  0  0
   -0.7114   -0.0618   -1.2270 C   0  0  0  0  0  4           0  0  0
   -2.8756   -0.1227   -2.2995 C   0  0  0  0  0  4           0  0  0
    7.1679   -2.2819    4.3508 C   0  0  0  0  0  4           0  0  0
   -0.1176   -0.1149   -2.5151 C   0  0  0  0  0  4           0  0  0
    8.3107   -4.3708    3.9313 C   0  0  0  0  0  4           0  0  0
    3.6628    0.4549    0.7871 C   0  0  0  0  0  4           0  0  0
    7.8032   -2.8910    2.0919 C   0  0  0  0  0  4           0  0  0
    8.3517   -4.0796    2.5686 C   0  0  0  0  0  4           0  0  0
    6.0523    0.1971    3.1813 C   0  0  0  0  0  4           0  0  0
   -4.2574    0.4402   -4.7230 C   0  0  0  0  0  4           0  0  0
   -7.1289    6.6527   -6.3103 C   0  0  0  0  0  4           0  0  0
    1.0348   -0.2111   -5.0380 C   0  0  0  0  0  4           0  0  0
    7.1412   -2.9652    7.0590 C   0  0  0  0  0  4           0  0  0
   -6.2849    0.9590   -6.2073 C   0  0  0  0  0  4           0  0  0
   -5.5481    3.1633   -6.9035 C   0  0  0  0  0  4           0  0  0
   -7.7847    2.8301   -6.0362 C   0  0  0  0  0  4           0  0  0
    5.5780    1.3494    2.3253 C   0  0  0  0  0  4           0  0  0
   -7.0675    5.1734   -6.6647 C   0  0  1  0  0  4           0  0  0
   -4.9013    0.3029   -6.0961 C   0  0  0  0  0  4           0  0  0
   -5.6232    4.6660   -6.6259 C   0  0  0  0  0  4           0  0  0
   -7.9343    4.3216   -5.7283 C   0  0  0  0  0  4           0  0  0
  1 13  1  0     0  0
  1 31  1  0     0  0
  2 14  1  0     0  0
  2 33  1  0     0  0
  3 15  1  0     0  0
  3 34  1  0     0  0
  4 30  2  0     0  0
  5 32  1  0     0  0
  6  7  1  0     0  0
  6 20  1  0     0  0
  7 17  2  0     0  0
  8 16  1  0     0  0
  8 18  2  0     0  0
  9 16  2  0     0  0
  9 19  1  0     0  0
 10 17  1  0     0  0
 10 18  1  0     0  0
 11 21  1  0     0  0
 11 30  1  0     0  0
 12 35  1  0     0  0
 12 36  1  0     0  0
 12 37  1  0     0  0
 13 14  1  0     0  0
 13 23  2  0     0  0
 14 25  2  0     0  0
 15 24  2  0     0  0
 15 26  1  0     0  0
 17 27  1  0     0  0
 18 22  1  0     0  0
 19 22  2  0     0  0
 19 23  1  0     0  0
 20 27  2  0     0  0
 20 38  1  0     0  0
 21 24  1  0     0  0
 21 28  2  0     0  0
 22 25  1  0     0  0
 26 29  2  0     0  0
 28 29  1  0     0  0
 30 38  1  0     0  0
 31 40  1  0     0  0
 32 39  1  0     0  0
 35 40  1  0     0  0
 36 41  1  0     0  0
 37 42  1  0     0  0
 39 41  1  0     0  0
 39 42  1  0     0  0
M  END
> <standard_type>
pIC50

> <# Confs.>
25

> <canonical_smiles>
O=C(CC1=CC(NC2=NC=NC3=C2C=C(OC)C(OCCCN4CCC(CO)CC4)=C3)=NN1)NC5=CC=CC(OC)=C5

> <standard_relation>
=

> <Publication_ID>
nan

> <predicted_activity_value>
8.065501548756432

> <actual_activity_value>
8.045757490560675

> <Compound>
6

> <standard_units>
nM

> hash
17619100297895759804

$$$$
6_
XXILIB    08252103493D 0   0.00000     0.00000

 42 46  0     1  0            999 V2000
   -2.9839   -0.2052   -4.7445 O   0  0  0  0  0  2           0  0  0
   -0.3882   -0.2093   -4.9482 O   0  0  0  0  0  2           0  0  0
    7.7128    3.8622    6.1875 O   0  0  0  0  0  2           0  0  0
    5.8931   -0.1992    4.4178 O   0  0  0  0  0  2           0  0  0
  -12.2289    0.0159   -3.8509 O   0  0  0  0  0  2           0  0  0
    3.0970   -1.5042    2.6081 N   0  0  0  0  0  3           0  0  0
    1.9189   -1.1854    2.0532 N   0  0  0  0  0  3           0  0  0
   -0.6495   -0.0000    1.1904 N   0  0  0  0  0  3           0  0  0
   -2.7540   -0.0514    0.0452 N   0  0  0  0  0  3           0  0  0
    1.4152    0.0000    0.0000 N   0  0  0  0  0  3           0  0  0
    6.6341    0.8281    2.4686 N   0  0  0  0  0  3           0  0  0
   -7.3415   -0.9377   -5.2638 N   0  0  1  0  0  3           0  0  0
   -2.2871   -0.1609   -3.5701 C   0  0  0  0  0  4           0  0  0
   -0.8932   -0.1635   -3.6794 C   0  0  0  0  0  4           0  0  0
    7.6750    3.4864    4.8743 C   0  0  0  0  0  4           0  0  0
   -1.9881   -0.0196    1.1450 C   0  0  0  0  0  4           0  0  0
    2.2520   -0.5354    0.9274 C   0  0  0  0  0  4           0  0  0
    0.0000    0.0000    0.0000 C   0  0  0  0  0  4           0  0  0
   -2.1162   -0.0763   -1.1322 C   0  0  0  0  0  4           0  0  0
    4.1831   -1.0863    1.8939 C   0  0  0  0  0  4           0  0  0
    7.1612    2.0157    3.0096 C   0  0  0  0  0  4           0  0  0
   -0.7114   -0.0618   -1.2270 C   0  0  0  0  0  4           0  0  0
   -2.8756   -0.1227   -2.2995 C   0  0  0  0  0  4           0  0  0
    7.1422    2.2865    4.3868 C   0  0  0  0  0  4           0  0  0
   -0.1176   -0.1149   -2.5151 C   0  0  0  0  0  4           0  0  0
    8.2316    4.4062    3.9798 C   0  0  0  0  0  4           0  0  0
    3.6628   -0.4542    0.7875 C   0  0  0  0  0  4           0  0  0
    7.7187    2.9461    2.1262 C   0  0  0  0  0  4           0  0  0
    8.2522    4.1378    2.6120 C   0  0  0  0  0  4           0  0  0
    6.0486   -0.1927    3.1973 C   0  0  0  0  0  4           0  0  0
   -4.2560   -0.8498   -4.6753 C   0  0  0  0  0  4           0  0  0
  -11.0309    0.7773   -3.7738 C   0  0  0  0  0  4           0  0  0
    1.0348   -0.2111   -5.0380 C   0  0  0  0  0  4           0  0  0
    7.1529    2.9261    7.1057 C   0  0  0  0  0  4           0  0  0
   -6.2823   -1.4813   -6.1169 C   0  0  0  0  0  4           0  0  0
   -7.6129    0.4743   -5.5772 C   0  0  0  0  0  4           0  0  0
   -8.5624   -1.7468   -5.4024 C   0  0  0  0  0  4           0  0  0
    5.5780   -1.3390    2.3312 C   0  0  0  0  0  4           0  0  0
   -9.9909    0.2347   -4.7441 C   0  0  1  0  0  4           0  0  0
   -4.9001   -0.8159   -6.0546 C   0  0  0  0  0  4           0  0  0
   -8.6978    1.0512   -4.6656 C   0  0  0  0  0  4           0  0  0
   -9.6785   -1.2446   -4.4838 C   0  0  0  0  0  4           0  0  0
  1 13  1  0     0  0
  1 31  1  0     0  0
  2 14  1  0     0  0
  2 33  1  0     0  0
  3 15  1  0     0  0
  3 34  1  0     0  0
  4 30  2  0     0  0
  5 32  1  0     0  0
  6  7  1  0     0  0
  6 20  1  0     0  0
  7 17  2  0     0  0
  8 16  1  0     0  0
  8 18  2  0     0  0
  9 16  2  0     0  0
  9 19  1  0     0  0
 10 17  1  0     0  0
 10 18  1  0     0  0
 11 21  1  0     0  0
 11 30  1  0     0  0
 12 35  1  0     0  0
 12 36  1  0     0  0
 12 37  1  0     0  0
 13 14  1  0     0  0
 13 23  2  0     0  0
 14 25  2  0     0  0
 15 24  2  0     0  0
 15 26  1  0     0  0
 17 27  1  0     0  0
 18 22  1  0     0  0
 19 22  2  0     0  0
 19 23  1  0     0  0
 20 27  2  0     0  0
 20 38  1  0     0  0
 21 24  1  0     0  0
 21 28  2  0     0  0
 22 25  1  0     0  0
 26 29  2  0     0  0
 28 29  1  0     0  0
 30 38  1  0     0  0
 31 40  1  0     0  0
 32 39  1  0     0  0
 35 40  1  0     0  0
 36 41  1  0     0  0
 37 42  1  0     0  0
 39 41  1  0     0  0
 39 42  1  0     0  0
M  END
> <standard_type>
pIC50

> <# Confs.>
25

> <canonical_smiles>
O=C(CC1=CC(NC2=NC=NC3=C2C=C(OC)C(OCCCN4CCC(CO)CC4)=C3)=NN1)NC5=CC=CC(OC)=C5

> <standard_relation>
=

> <Publication_ID>
nan

> <predicted_activity_value>
8.065501548756432

> <actual_activity_value>
8.045757490560675

> <Compound>
6

> <standard_units>
nM

> hash
17619100297895759804

$$$$
6_
XXILIB    08252103493D 0   0.00000     0.00000

 42 46  0     1  0            999 V2000
   -2.9839   -0.2052   -4.7445 O   0  0  0  0  0  2           0  0  0
   -0.3882   -0.2093   -4.9482 O   0  0  0  0  0  2           0  0  0
    7.7446   -7.2510   -0.2834 O   0  0  0  0  0  2           0  0  0
    5.8984   -3.7156    2.3683 O   0  0  0  0  0  2           0  0  0
  -12.2289    0.0159   -3.8509 O   0  0  0  0  0  2           0  0  0
    3.0970   -1.5042    2.6081 N   0  0  0  0  0  3           0  0  0
    1.9189   -1.1854    2.0532 N   0  0  0  0  0  3           0  0  0
   -0.6495   -0.0000    1.1904 N   0  0  0  0  0  3           0  0  0
   -2.7540   -0.0514    0.0452 N   0  0  0  0  0  3           0  0  0
    1.4152   -0.0000    0.0000 N   0  0  0  0  0  3           0  0  0
    6.6716   -2.5197    0.5310 N   0  0  0  0  0  3           0  0  0
   -7.3415   -0.9377   -5.2638 N   0  0  1  0  0  3           0  0  0
   -2.2871   -0.1609   -3.5701 C   0  0  0  0  0  4           0  0  0
   -0.8932   -0.1635   -3.6794 C   0  0  0  0  0  4           0  0  0
    7.7229   -5.9206   -0.5943 C   0  0  0  0  0  4           0  0  0
   -1.9881   -0.0196    1.1450 C   0  0  0  0  0  4           0  0  0
    2.2520   -0.5354    0.9274 C   0  0  0  0  0  4           0  0  0
    0.0000    0.0000    0.0000 C   0  0  0  0  0  4           0  0  0
   -2.1162   -0.0763   -1.1322 C   0  0  0  0  0  4           0  0  0
    4.1831   -1.0863    1.8939 C   0  0  0  0  0  4           0  0  0
    7.2097   -3.5734   -0.2312 C   0  0  0  0  0  4           0  0  0
   -0.7114   -0.0618   -1.2270 C   0  0  0  0  0  4           0  0  0
   -2.8756   -0.1227   -2.2995 C   0  0  0  0  0  4           0  0  0
    7.1679   -4.9089    0.1992 C   0  0  0  0  0  4           0  0  0
   -0.1176   -0.1149   -2.5151 C   0  0  0  0  0  4           0  0  0
    8.3107   -5.5900   -1.8196 C   0  0  0  0  0  4           0  0  0
    3.6628   -0.4542    0.7875 C   0  0  0  0  0  4           0  0  0
    7.8032   -3.2571   -1.4577 C   0  0  0  0  0  4           0  0  0
    8.3517   -4.2642   -2.2487 C   0  0  0  0  0  4           0  0  0
    6.0523   -2.6566    1.7613 C   0  0  0  0  0  4           0  0  0
   -4.2560   -0.8498   -4.6753 C   0  0  0  0  0  4           0  0  0
  -11.0309    0.7773   -3.7738 C   0  0  0  0  0  4           0  0  0
    1.0348   -0.2111   -5.0380 C   0  0  0  0  0  4           0  0  0
    7.1412   -7.5959    0.9615 C   0  0  0  0  0  4           0  0  0
   -6.2823   -1.4813   -6.1169 C   0  0  0  0  0  4           0  0  0
   -7.6129    0.4743   -5.5772 C   0  0  0  0  0  4           0  0  0
   -8.5624   -1.7468   -5.4024 C   0  0  0  0  0  4           0  0  0
    5.5780   -1.3390    2.3312 C   0  0  0  0  0  4           0  0  0
   -9.9909    0.2347   -4.7441 C   0  0  1  0  0  4           0  0  0
   -4.9001   -0.8159   -6.0546 C   0  0  0  0  0  4           0  0  0
   -8.6978    1.0512   -4.6656 C   0  0  0  0  0  4           0  0  0
   -9.6785   -1.2446   -4.4838 C   0  0  0  0  0  4           0  0  0
  1 13  1  0     0  0
  1 31  1  0     0  0
  2 14  1  0     0  0
  2 33  1  0     0  0
  3 15  1  0     0  0
  3 34  1  0     0  0
  4 30  2  0     0  0
  5 32  1  0     0  0
  6  7  1  0     0  0
  6 20  1  0     0  0
  7 17  2  0     0  0
  8 16  1  0     0  0
  8 18  2  0     0  0
  9 16  2  0     0  0
  9 19  1  0     0  0
 10 17  1  0     0  0
 10 18  1  0     0  0
 11 21  1  0     0  0
 11 30  1  0     0  0
 12 35  1  0     0  0
 12 36  1  0     0  0
 12 37  1  0     0  0
 13 14  1  0     0  0
 13 23  2  0     0  0
 14 25  2  0     0  0
 15 24  2  0     0  0
 15 26  1  0     0  0
 17 27  1  0     0  0
 18 22  1  0     0  0
 19 22  2  0     0  0
 19 23  1  0     0  0
 20 27  2  0     0  0
 20 38  1  0     0  0
 21 24  1  0     0  0
 21 28  2  0     0  0
 22 25  1  0     0  0
 26 29  2  0     0  0
 28 29  1  0     0  0
 30 38  1  0     0  0
 31 40  1  0     0  0
 32 39  1  0     0  0
 35 40  1  0     0  0
 36 41  1  0     0  0
 37 42  1  0     0  0
 39 41  1  0     0  0
 39 42  1  0     0  0
M  END
> <standard_type>
pIC50

> <# Confs.>
25

> <canonical_smiles>
O=C(CC1=CC(NC2=NC=NC3=C2C=C(OC)C(OCCCN4CCC(CO)CC4)=C3)=NN1)NC5=CC=CC(OC)=C5

> <standard_relation>
=

> <Publication_ID>
nan

> <predicted_activity_value>
8.065501548756432

> <actual_activity_value>
8.045757490560675

> <Compound>
6

> <standard_units>
nM

> hash
17619100297895759804

$$$$
6_
XXILIB    08252103493D 0   0.00000     0.00000

 42 46  0     1  0            999 V2000
   -2.9839   -0.2052   -4.7445 O   0  0  0  0  0  2           0  0  0
   -0.3882   -0.2093   -4.9482 O   0  0  0  0  0  2           0  0  0
    7.7659   -7.2531   -0.2607 O   0  0  0  0  0  2           0  0  0
    5.4821   -3.7154    2.0212 O   0  0  0  0  0  2           0  0  0
   -9.4729    5.5627   -5.3158 O   0  0  0  0  0  2           0  0  0
    3.0970   -1.5042    2.6081 N   0  0  0  0  0  3           0  0  0
    1.9189   -1.1854    2.0532 N   0  0  0  0  0  3           0  0  0
   -0.6495   -0.0000    1.1904 N   0  0  0  0  0  3           0  0  0
   -2.7540   -0.0514    0.0452 N   0  0  0  0  0  3           0  0  0
    1.4152    0.0000    0.0000 N   0  0  0  0  0  3           0  0  0
    7.1731   -2.5247    0.9599 N   0  0  0  0  0  3           0  0  0
   -7.2480    0.8891   -5.3880 N   0  0  1  0  0  3           0  0  0
   -2.2871   -0.1609   -3.5701 C   0  0  0  0  0  4           0  0  0
   -0.8932   -0.1635   -3.6794 C   0  0  0  0  0  4           0  0  0
    8.0892   -5.9257   -0.2777 C   0  0  0  0  0  4           0  0  0
   -1.9881   -0.0196    1.1450 C   0  0  0  0  0  4           0  0  0
    2.2520   -0.5354    0.9274 C   0  0  0  0  0  4           0  0  0
    0.0000    0.0000    0.0000 C   0  0  0  0  0  4           0  0  0
   -2.1162   -0.0763   -1.1322 C   0  0  0  0  0  4           0  0  0
    4.1831   -1.0863    1.8939 C   0  0  0  0  0  4           0  0  0
    7.8305   -3.5796    0.2997 C   0  0  0  0  0  4           0  0  0
   -0.7114   -0.0618   -1.2270 C   0  0  0  0  0  4           0  0  0
   -2.8756   -0.1227   -2.2995 C   0  0  0  0  0  4           0  0  0
    7.3965   -4.9111    0.3948 C   0  0  0  0  0  4           0  0  0
   -0.1176   -0.1149   -2.5151 C   0  0  0  0  0  4           0  0  0
    9.2095   -5.5997   -1.0490 C   0  0  0  0  0  4           0  0  0
    3.6628   -0.4542    0.7875 C   0  0  0  0  0  4           0  0  0
    8.9542   -3.2687   -0.4732 C   0  0  0  0  0  4           0  0  0
    9.6407   -4.2775   -1.1453 C   0  0  0  0  0  4           0  0  0
    6.0523   -2.6566    1.7613 C   0  0  0  0  0  4           0  0  0
   -4.4054   -0.2017   -4.6110 C   0  0  0  0  0  4           0  0  0
   -9.7675    4.3377   -4.6575 C   0  0  0  0  0  4           0  0  0
    1.0348   -0.2111   -5.0380 C   0  0  0  0  0  4           0  0  0
    6.6208   -7.5916    0.5185 C   0  0  0  0  0  4           0  0  0
   -6.5650   -0.2553   -5.9953 C   0  0  0  0  0  4           0  0  0
   -6.8960    2.1472   -6.0656 C   0  0  0  0  0  4           0  0  0
   -8.7034    0.6745   -5.4099 C   0  0  0  0  0  4           0  0  0
    5.5780   -1.3390    2.3312 C   0  0  0  0  0  4           0  0  0
   -9.1063    3.1720   -5.3796 C   0  0  1  0  0  4           0  0  0
   -5.0297   -0.2538   -5.9989 C   0  0  0  0  0  4           0  0  0
   -7.5853    3.3466   -5.4121 C   0  0  0  0  0  4           0  0  0
   -9.4528    1.8244   -4.7333 C   0  0  0  0  0  4           0  0  0
  1 13  1  0     0  0
  1 31  1  0     0  0
  2 14  1  0     0  0
  2 33  1  0     0  0
  3 15  1  0     0  0
  3 34  1  0     0  0
  4 30  2  0     0  0
  5 32  1  0     0  0
  6  7  1  0     0  0
  6 20  1  0     0  0
  7 17  2  0     0  0
  8 16  1  0     0  0
  8 18  2  0     0  0
  9 16  2  0     0  0
  9 19  1  0     0  0
 10 17  1  0     0  0
 10 18  1  0     0  0
 11 21  1  0     0  0
 11 30  1  0     0  0
 12 35  1  0     0  0
 12 36  1  0     0  0
 12 37  1  0     0  0
 13 14  1  0     0  0
 13 23  2  0     0  0
 14 25  2  0     0  0
 15 24  2  0     0  0
 15 26  1  0     0  0
 17 27  1  0     0  0
 18 22  1  0     0  0
 19 22  2  0     0  0
 19 23  1  0     0  0
 20 27  2  0     0  0
 20 38  1  0     0  0
 21 24  1  0     0  0
 21 28  2  0     0  0
 22 25  1  0     0  0
 26 29  2  0     0  0
 28 29  1  0     0  0
 30 38  1  0     0  0
 31 40  1  0     0  0
 32 39  1  0     0  0
 35 40  1  0     0  0
 36 41  1  0     0  0
 37 42  1  0     0  0
 39 41  1  0     0  0
 39 42  1  0     0  0
M  END
> <standard_type>
pIC50

> <# Confs.>
25

> <canonical_smiles>
O=C(CC1=CC(NC2=NC=NC3=C2C=C(OC)C(OCCCN4CCC(CO)CC4)=C3)=NN1)NC5=CC=CC(OC)=C5

> <standard_relation>
=

> <Publication_ID>
nan

> <predicted_activity_value>
8.065501548756432

> <actual_activity_value>
8.045757490560675

> <Compound>
6

> <standard_units>
nM

> hash
17619100297895759804

$$$$
6_
XXILIB    08252103493D 0   0.00000     0.00000

 42 46  0     1  0            999 V2000
   -2.9839   -0.2052   -4.7445 O   0  0  0  0  0  2           0  0  0
   -0.3882   -0.2093   -4.9482 O   0  0  0  0  0  2           0  0  0
    7.7390    7.2874   -0.2342 O   0  0  0  0  0  2           0  0  0
    5.4763    3.7279    2.0349 O   0  0  0  0  0  2           0  0  0
   -8.4715    7.1183   -6.3478 O   0  0  0  0  0  2           0  0  0
    3.0970    1.5066    2.6067 N   0  0  0  0  0  3           0  0  0
    1.9189    1.1854    2.0532 N   0  0  0  0  0  3           0  0  0
   -0.6495    0.0000    1.1904 N   0  0  0  0  0  3           0  0  0
   -2.7540   -0.0514    0.0452 N   0  0  0  0  0  3           0  0  0
    1.4152    0.0000    0.0000 N   0  0  0  0  0  3           0  0  0
    7.1468    2.5454    0.9327 N   0  0  0  0  0  3           0  0  0
   -6.3800    2.3994   -5.9599 N   0  0  1  0  0  3           0  0  0
   -2.2871   -0.1609   -3.5701 C   0  0  0  0  0  4           0  0  0
   -0.8932   -0.1635   -3.6794 C   0  0  0  0  0  4           0  0  0
    8.0527    5.9583   -0.2793 C   0  0  0  0  0  4           0  0  0
   -1.9881   -0.0196    1.1450 C   0  0  0  0  0  4           0  0  0
    2.2520    0.5354    0.9274 C   0  0  0  0  0  4           0  0  0
    0.0000    0.0000    0.0000 C   0  0  0  0  0  4           0  0  0
   -2.1162   -0.0763   -1.1322 C   0  0  0  0  0  4           0  0  0
    4.1831    1.0971    1.8877 C   0  0  0  0  0  4           0  0  0
    7.7957    3.6061    0.2734 C   0  0  0  0  0  4           0  0  0
   -0.7114   -0.0618   -1.2270 C   0  0  0  0  0  4           0  0  0
   -2.8756   -0.1227   -2.2995 C   0  0  0  0  0  4           0  0  0
    7.3759    4.9393    0.4027 C   0  0  0  0  0  4           0  0  0
   -0.1176   -0.1149   -2.5151 C   0  0  0  0  0  4           0  0  0
    9.1523    5.6371   -1.0817 C   0  0  0  0  0  4           0  0  0
    3.6628    0.4549    0.7871 C   0  0  0  0  0  4           0  0  0
    8.8954    3.2993   -0.5348 C   0  0  0  0  0  4           0  0  0
    9.5709    4.3136   -1.2098 C   0  0  0  0  0  4           0  0  0
    6.0486    2.6726    1.7656 C   0  0  0  0  0  4           0  0  0
   -4.2574    0.4402   -4.7230 C   0  0  0  0  0  4           0  0  0
   -7.1289    6.6527   -6.3103 C   0  0  0  0  0  4           0  0  0
    1.0348   -0.2111   -5.0380 C   0  0  0  0  0  4           0  0  0
    6.6229    7.6227    0.5872 C   0  0  0  0  0  4           0  0  0
   -6.2849    0.9590   -6.2073 C   0  0  0  0  0  4           0  0  0
   -5.5481    3.1633   -6.9035 C   0  0  0  0  0  4           0  0  0
   -7.7847    2.8301   -6.0362 C   0  0  0  0  0  4           0  0  0
    5.5780    1.3494    2.3253 C   0  0  0  0  0  4           0  0  0
   -7.0675    5.1734   -6.6647 C   0  0  1  0  0  4           0  0  0
   -4.9013    0.3029   -6.0961 C   0  0  0  0  0  4           0  0  0
   -5.6232    4.6660   -6.6259 C   0  0  0  0  0  4           0  0  0
   -7.9343    4.3216   -5.7283 C   0  0  0  0  0  4           0  0  0
  1 13  1  0     0  0
  1 31  1  0     0  0
  2 14  1  0     0  0
  2 33  1  0     0  0
  3 15  1  0     0  0
  3 34  1  0     0  0
  4 30  2  0     0  0
  5 32  1  0     0  0
  6  7  1  0     0  0
  6 20  1  0     0  0
  7 17  2  0     0  0
  8 16  1  0     0  0
  8 18  2  0     0  0
  9 16  2  0     0  0
  9 19  1  0     0  0
 10 17  1  0     0  0
 10 18  1  0     0  0
 11 21  1  0     0  0
 11 30  1  0     0  0
 12 35  1  0     0  0
 12 36  1  0     0  0
 12 37  1  0     0  0
 13 14  1  0     0  0
 13 23  2  0     0  0
 14 25  2  0     0  0
 15 24  2  0     0  0
 15 26  1  0     0  0
 17 27  1  0     0  0
 18 22  1  0     0  0
 19 22  2  0     0  0
 19 23  1  0     0  0
 20 27  2  0     0  0
 20 38  1  0     0  0
 21 24  1  0     0  0
 21 28  2  0     0  0
 22 25  1  0     0  0
 26 29  2  0     0  0
 28 29  1  0     0  0
 30 38  1  0     0  0
 31 40  1  0     0  0
 32 39  1  0     0  0
 35 40  1  0     0  0
 36 41  1  0     0  0
 37 42  1  0     0  0
 39 41  1  0     0  0
 39 42  1  0     0  0
M  END
> <standard_type>
pIC50

> <# Confs.>
25

> <canonical_smiles>
O=C(CC1=CC(NC2=NC=NC3=C2C=C(OC)C(OCCCN4CCC(CO)CC4)=C3)=NN1)NC5=CC=CC(OC)=C5

> <standard_relation>
=

> <Publication_ID>
nan

> <predicted_activity_value>
8.065501548756432

> <actual_activity_value>
8.045757490560675

> <Compound>
6

> <standard_units>
nM

> hash
17619100297895759804

$$$$
18_
XXILIB    08252103493D 0   0.00000     0.00000

 17 18  0     1  0            999 V2000
    5.6932    1.8259    3.1444 Br  0  0  0  0  0  1           0  0  0
    3.9540    0.4865    0.8427 S   0  0  0  0  0  2           0  0  0
   -4.9187   -0.4959    0.8335 O   0  0  0  0  0  2           0  0  0
    1.7661    1.1648    2.0155 N   0  0  0  0  0  3           0  0  0
    1.4006    0.0000    0.0000 N   0  0  0  0  0  3           0  0  0
   -4.9119    0.5519   -1.2217 N   0  0  0  0  0  3           0  0  0
    4.0583    1.3340    2.3034 C   0  0  0  0  0  4           0  0  0
    2.2149    0.5417    0.9383 C   0  0  0  0  0  4           0  0  0
    2.8128    1.6175    2.7952 C   0  0  0  0  0  4           0  0  0
    0.0000    0.0000    0.0000 C   0  0  0  0  0  4           0  0  0
   -2.8291   -0.0022   -0.1062 C   0  0  0  0  0  4           0  0  0
   -0.7663    0.0000    1.1751 C   0  0  0  0  0  4           0  0  0
   -0.6803    0.0026   -1.2282 C   0  0  0  0  0  4           0  0  0
   -2.1648   -0.0016    1.1246 C   0  0  0  0  0  4           0  0  0
   -2.0783    0.0009   -1.2854 C   0  0  0  0  0  4           0  0  0
   -4.3109   -0.0075   -0.1162 C   0  0  0  0  0  4           0  0  0
   -6.3472    0.6154   -1.3656 C   0  0  0  0  0  4           0  0  0
  1  7  1  0     0  0
  2  7  1  0     0  0
  2  8  1  0     0  0
  3 16  2  0     0  0
  4  8  2  0     0  0
  4  9  1  0     0  0
  5  8  1  0     0  0
  5 10  1  0     0  0
  6 16  1  0     0  0
  6 17  1  0     0  0
  7  9  2  0     0  0
 10 12  2  0     0  0
 10 13  1  0     0  0
 11 14  2  0     0  0
 11 15  1  0     0  0
 11 16  1  0     0  0
 12 14  1  0     0  0
 13 15  2  0     0  0
M  END
> <standard_type>
pIC50

> <# Confs.>
20

> <canonical_smiles>
O=C(NC)C1=CC=C(NC2=NC=C(Br)S2)C=C1

> <standard_relation>
=

> <Publication_ID>
nan

> <predicted_activity_value>
6.275724130399211

> <actual_activity_value>
6.236572006437063

> <Compound>
18

> <standard_units>
nM

> hash
586248102528039147

$$$$
18_
XXILIB    08252103493D 0   0.00000     0.00000

 17 18  0     1  0            999 V2000
    5.6932   -1.8102    3.1535 Br  0  0  0  0  0  1           0  0  0
    3.9540   -0.4865    0.8427 S   0  0  0  0  0  2           0  0  0
   -4.9223    0.4761    0.8337 O   0  0  0  0  0  2           0  0  0
    1.7661   -1.1630    2.0165 N   0  0  0  0  0  3           0  0  0
    1.4006    0.0000    0.0000 N   0  0  0  0  0  3           0  0  0
   -4.9079   -0.5707   -1.2220 N   0  0  0  0  0  3           0  0  0
    4.0583   -1.3278    2.3070 C   0  0  0  0  0  4           0  0  0
    2.2149   -0.5417    0.9383 C   0  0  0  0  0  4           0  0  0
    2.8128   -1.6120    2.7984 C   0  0  0  0  0  4           0  0  0
    0.0000    0.0000    0.0000 C   0  0  0  0  0  4           0  0  0
   -2.8291   -0.0022   -0.1062 C   0  0  0  0  0  4           0  0  0
   -0.7663    0.0000    1.1751 C   0  0  0  0  0  4           0  0  0
   -0.6803    0.0026   -1.2282 C   0  0  0  0  0  4           0  0  0
   -2.1648   -0.0016    1.1246 C   0  0  0  0  0  4           0  0  0
   -2.0783    0.0009   -1.2854 C   0  0  0  0  0  4           0  0  0
   -4.3109   -0.0075   -0.1162 C   0  0  0  0  0  4           0  0  0
   -6.3426   -0.6442   -1.3661 C   0  0  0  0  0  4           0  0  0
  1  7  1  0     0  0
  2  7  1  0     0  0
  2  8  1  0     0  0
  3 16  2  0     0  0
  4  8  2  0     0  0
  4  9  1  0     0  0
  5  8  1  0     0  0
  5 10  1  0     0  0
  6 16  1  0     0  0
  6 17  1  0     0  0
  7  9  2  0     0  0
 10 12  2  0     0  0
 10 13  1  0     0  0
 11 14  2  0     0  0
 11 15  1  0     0  0
 11 16  1  0     0  0
 12 14  1  0     0  0
 13 15  2  0     0  0
M  END
> <standard_type>
pIC50

> <# Confs.>
20

> <canonical_smiles>
O=C(NC)C1=CC=C(NC2=NC=C(Br)S2)C=C1

> <standard_relation>
=

> <Publication_ID>
nan

> <predicted_activity_value>
6.275724130399211

> <actual_activity_value>
6.236572006437063

> <Compound>
18

> <standard_units>
nM

> hash
586248102528039147

$$$$
18_
XXILIB    08252103493D 0   0.00000     0.00000

 17 18  0     1  0            999 V2000
    5.6932    1.8102   -3.1535 Br  0  0  0  0  0  1           0  0  0
    3.9540    0.4865   -0.8427 S   0  0  0  0  0  2           0  0  0
   -4.9187   -0.4959    0.8335 O   0  0  0  0  0  2           0  0  0
    1.7661    1.1630   -2.0165 N   0  0  0  0  0  3           0  0  0
    1.4006    0.0000    0.0000 N   0  0  0  0  0  3           0  0  0
   -4.9119    0.5519   -1.2217 N   0  0  0  0  0  3           0  0  0
    4.0583    1.3278   -2.3070 C   0  0  0  0  0  4           0  0  0
    2.2149    0.5417   -0.9383 C   0  0  0  0  0  4           0  0  0
    2.8128    1.6120   -2.7984 C   0  0  0  0  0  4           0  0  0
    0.0000    0.0000    0.0000 C   0  0  0  0  0  4           0  0  0
   -2.8291   -0.0022   -0.1062 C   0  0  0  0  0  4           0  0  0
   -0.7663    0.0000    1.1751 C   0  0  0  0  0  4           0  0  0
   -0.6803    0.0026   -1.2282 C   0  0  0  0  0  4           0  0  0
   -2.1648   -0.0016    1.1246 C   0  0  0  0  0  4           0  0  0
   -2.0783    0.0009   -1.2854 C   0  0  0  0  0  4           0  0  0
   -4.3109   -0.0075   -0.1162 C   0  0  0  0  0  4           0  0  0
   -6.3472    0.6154   -1.3656 C   0  0  0  0  0  4           0  0  0
  1  7  1  0     0  0
  2  7  1  0     0  0
  2  8  1  0     0  0
  3 16  2  0     0  0
  4  8  2  0     0  0
  4  9  1  0     0  0
  5  8  1  0     0  0
  5 10  1  0     0  0
  6 16  1  0     0  0
  6 17  1  0     0  0
  7  9  2  0     0  0
 10 12  2  0     0  0
 10 13  1  0     0  0
 11 14  2  0     0  0
 11 15  1  0     0  0
 11 16  1  0     0  0
 12 14  1  0     0  0
 13 15  2  0     0  0
M  END
> <standard_type>
pIC50

> <# Confs.>
20

> <canonical_smiles>
O=C(NC)C1=CC=C(NC2=NC=C(Br)S2)C=C1

> <standard_relation>
=

> <Publication_ID>
nan

> <predicted_activity_value>
6.275724130399211

> <actual_activity_value>
6.236572006437063

> <Compound>
18

> <standard_units>
nM

> hash
586248102528039147

$$$$
18_
XXILIB    08252103493D 0   0.00000     0.00000

 17 18  0     1  0            999 V2000
    5.6932   -1.8259   -3.1444 Br  0  0  0  0  0  1           0  0  0
    3.9540   -0.4865   -0.8427 S   0  0  0  0  0  2           0  0  0
   -4.9223    0.4761    0.8337 O   0  0  0  0  0  2           0  0  0
    1.7661   -1.1648   -2.0155 N   0  0  0  0  0  3           0  0  0
    1.4006    0.0000    0.0000 N   0  0  0  0  0  3           0  0  0
   -4.9079   -0.5707   -1.2220 N   0  0  0  0  0  3           0  0  0
    4.0583   -1.3340   -2.3034 C   0  0  0  0  0  4           0  0  0
    2.2149   -0.5417   -0.9383 C   0  0  0  0  0  4           0  0  0
    2.8128   -1.6175   -2.7952 C   0  0  0  0  0  4           0  0  0
    0.0000    0.0000    0.0000 C   0  0  0  0  0  4           0  0  0
   -2.8291   -0.0022   -0.1062 C   0  0  0  0  0  4           0  0  0
   -0.7663    0.0000    1.1751 C   0  0  0  0  0  4           0  0  0
   -0.6803    0.0026   -1.2282 C   0  0  0  0  0  4           0  0  0
   -2.1648   -0.0016    1.1246 C   0  0  0  0  0  4           0  0  0
   -2.0783    0.0009   -1.2854 C   0  0  0  0  0  4           0  0  0
   -4.3109   -0.0075   -0.1162 C   0  0  0  0  0  4           0  0  0
   -6.3426   -0.6442   -1.3661 C   0  0  0  0  0  4           0  0  0
  1  7  1  0     0  0
  2  7  1  0     0  0
  2  8  1  0     0  0
  3 16  2  0     0  0
  4  8  2  0     0  0
  4  9  1  0     0  0
  5  8  1  0     0  0
  5 10  1  0     0  0
  6 16  1  0     0  0
  6 17  1  0     0  0
  7  9  2  0     0  0
 10 12  2  0     0  0
 10 13  1  0     0  0
 11 14  2  0     0  0
 11 15  1  0     0  0
 11 16  1  0     0  0
 12 14  1  0     0  0
 13 15  2  0     0  0
M  END
> <standard_type>
pIC50

> <# Confs.>
20

> <canonical_smiles>
O=C(NC)C1=CC=C(NC2=NC=C(Br)S2)C=C1

> <standard_relation>
=

> <Publication_ID>
nan

> <predicted_activity_value>
6.275724130399211

> <actual_activity_value>
6.236572006437063

> <Compound>
18

> <standard_units>
nM

> hash
586248102528039147

$$$$
18_
XXILIB    08252103493D 0   0.00000     0.00000

 17 18  0     1  0            999 V2000
    5.5561   -1.3230    3.5538 Br  0  0  0  0  0  1           0  0  0
    3.7980    0.0856    1.3083 S   0  0  0  0  0  2           0  0  0
   -4.9187   -0.4959    0.8335 O   0  0  0  0  0  2           0  0  0
    1.8842   -1.5979    1.6630 N   0  0  0  0  0  3           0  0  0
    1.4006   -0.0000    0.0000 N   0  0  0  0  0  3           0  0  0
   -4.9119    0.5519   -1.2217 N   0  0  0  0  0  3           0  0  0
    4.0006   -1.1224    2.4756 C   0  0  0  0  0  4           0  0  0
    2.2149   -0.5417    0.9383 C   0  0  0  0  0  4           0  0  0
    2.8985   -1.9315    2.5395 C   0  0  0  0  0  4           0  0  0
    0.0000    0.0000    0.0000 C   0  0  0  0  0  4           0  0  0
   -2.8291   -0.0022   -0.1062 C   0  0  0  0  0  4           0  0  0
   -0.7663    0.0000    1.1751 C   0  0  0  0  0  4           0  0  0
   -0.6803    0.0026   -1.2282 C   0  0  0  0  0  4           0  0  0
   -2.1648   -0.0016    1.1246 C   0  0  0  0  0  4           0  0  0
   -2.0783    0.0009   -1.2854 C   0  0  0  0  0  4           0  0  0
   -4.3109   -0.0075   -0.1162 C   0  0  0  0  0  4           0  0  0
   -6.3472    0.6154   -1.3656 C   0  0  0  0  0  4           0  0  0
  1  7  1  0     0  0
  2  7  1  0     0  0
  2  8  1  0     0  0
  3 16  2  0     0  0
  4  8  2  0     0  0
  4  9  1  0     0  0
  5  8  1  0     0  0
  5 10  1  0     0  0
  6 16  1  0     0  0
  6 17  1  0     0  0
  7  9  2  0     0  0
 10 12  2  0     0  0
 10 13  1  0     0  0
 11 14  2  0     0  0
 11 15  1  0     0  0
 11 16  1  0     0  0
 12 14  1  0     0  0
 13 15  2  0     0  0
M  END
> <standard_type>
pIC50

> <# Confs.>
20

> <canonical_smiles>
O=C(NC)C1=CC=C(NC2=NC=C(Br)S2)C=C1

> <standard_relation>
=

> <Publication_ID>
nan

> <predicted_activity_value>
6.275724130399211

> <actual_activity_value>
6.236572006437063

> <Compound>
18

> <standard_units>
nM

> hash
586248102528039147

$$$$
18_
XXILIB    08252103493D 0   0.00000     0.00000

 17 18  0     1  0            999 V2000
    5.5633    1.3338    3.5413 Br  0  0  0  0  0  1           0  0  0
    3.7980   -0.0856    1.3083 S   0  0  0  0  0  2           0  0  0
   -4.9223    0.4761    0.8337 O   0  0  0  0  0  2           0  0  0
    1.8850    1.5992    1.6615 N   0  0  0  0  0  3           0  0  0
    1.4006    0.0000    0.0000 N   0  0  0  0  0  3           0  0  0
   -4.9079   -0.5707   -1.2220 N   0  0  0  0  0  3           0  0  0
    4.0035    1.1267    2.4706 C   0  0  0  0  0  4           0  0  0
    2.2149    0.5417    0.9383 C   0  0  0  0  0  4           0  0  0
    2.9010    1.9353    2.5352 C   0  0  0  0  0  4           0  0  0
    0.0000    0.0000    0.0000 C   0  0  0  0  0  4           0  0  0
   -2.8291   -0.0022   -0.1062 C   0  0  0  0  0  4           0  0  0
   -0.7663    0.0000    1.1751 C   0  0  0  0  0  4           0  0  0
   -0.6803    0.0026   -1.2282 C   0  0  0  0  0  4           0  0  0
   -2.1648   -0.0016    1.1246 C   0  0  0  0  0  4           0  0  0
   -2.0783    0.0009   -1.2854 C   0  0  0  0  0  4           0  0  0
   -4.3109   -0.0075   -0.1162 C   0  0  0  0  0  4           0  0  0
   -6.3426   -0.6442   -1.3661 C   0  0  0  0  0  4           0  0  0
  1  7  1  0     0  0
  2  7  1  0     0  0
  2  8  1  0     0  0
  3 16  2  0     0  0
  4  8  2  0     0  0
  4  9  1  0     0  0
  5  8  1  0     0  0
  5 10  1  0     0  0
  6 16  1  0     0  0
  6 17  1  0     0  0
  7  9  2  0     0  0
 10 12  2  0     0  0
 10 13  1  0     0  0
 11 14  2  0     0  0
 11 15  1  0     0  0
 11 16  1  0     0  0
 12 14  1  0     0  0
 13 15  2  0     0  0
M  END
> <standard_type>
pIC50

> <# Confs.>
20

> <canonical_smiles>
O=C(NC)C1=CC=C(NC2=NC=C(Br)S2)C=C1

> <standard_relation>
=

> <Publication_ID>
nan

> <predicted_activity_value>
6.275724130399211

> <actual_activity_value>
6.236572006437063

> <Compound>
18

> <standard_units>
nM

> hash
586248102528039147

$$$$
18_
XXILIB    08252103493D 0   0.00000     0.00000

 17 18  0     1  0            999 V2000
    5.5633   -1.3338   -3.5413 Br  0  0  0  0  0  1           0  0  0
    3.7980    0.0856   -1.3083 S   0  0  0  0  0  2           0  0  0
   -4.9187   -0.4959    0.8335 O   0  0  0  0  0  2           0  0  0
    1.8850   -1.5992   -1.6615 N   0  0  0  0  0  3           0  0  0
    1.4006   -0.0000   -0.0000 N   0  0  0  0  0  3           0  0  0
   -4.9119    0.5519   -1.2217 N   0  0  0  0  0  3           0  0  0
    4.0035   -1.1267   -2.4706 C   0  0  0  0  0  4           0  0  0
    2.2149   -0.5417   -0.9383 C   0  0  0  0  0  4           0  0  0
    2.9010   -1.9353   -2.5352 C   0  0  0  0  0  4           0  0  0
    0.0000    0.0000    0.0000 C   0  0  0  0  0  4           0  0  0
   -2.8291   -0.0022   -0.1062 C   0  0  0  0  0  4           0  0  0
   -0.7663    0.0000    1.1751 C   0  0  0  0  0  4           0  0  0
   -0.6803    0.0026   -1.2282 C   0  0  0  0  0  4           0  0  0
   -2.1648   -0.0016    1.1246 C   0  0  0  0  0  4           0  0  0
   -2.0783    0.0009   -1.2854 C   0  0  0  0  0  4           0  0  0
   -4.3109   -0.0075   -0.1162 C   0  0  0  0  0  4           0  0  0
   -6.3472    0.6154   -1.3656 C   0  0  0  0  0  4           0  0  0
  1  7  1  0     0  0
  2  7  1  0     0  0
  2  8  1  0     0  0
  3 16  2  0     0  0
  4  8  2  0     0  0
  4  9  1  0     0  0
  5  8  1  0     0  0
  5 10  1  0     0  0
  6 16  1  0     0  0
  6 17  1  0     0  0
  7  9  2  0     0  0
 10 12  2  0     0  0
 10 13  1  0     0  0
 11 14  2  0     0  0
 11 15  1  0     0  0
 11 16  1  0     0  0
 12 14  1  0     0  0
 13 15  2  0     0  0
M  END
> <standard_type>
pIC50

> <# Confs.>
20

> <canonical_smiles>
O=C(NC)C1=CC=C(NC2=NC=C(Br)S2)C=C1

> <standard_relation>
=

> <Publication_ID>
nan

> <predicted_activity_value>
6.275724130399211

> <actual_activity_value>
6.236572006437063

> <Compound>
18

> <standard_units>
nM

> hash
586248102528039147

$$$$
18_
XXILIB    08252103493D 0   0.00000     0.00000

 17 18  0     1  0            999 V2000
    5.5561    1.3230   -3.5538 Br  0  0  0  0  0  1           0  0  0
    3.7980   -0.0856   -1.3083 S   0  0  0  0  0  2           0  0  0
   -4.9223    0.4761    0.8337 O   0  0  0  0  0  2           0  0  0
    1.8842    1.5979   -1.6630 N   0  0  0  0  0  3           0  0  0
    1.4006    0.0000   -0.0000 N   0  0  0  0  0  3           0  0  0
   -4.9079   -0.5707   -1.2220 N   0  0  0  0  0  3           0  0  0
    4.0006    1.1224   -2.4756 C   0  0  0  0  0  4           0  0  0
    2.2149    0.5417   -0.9383 C   0  0  0  0  0  4           0  0  0
    2.8985    1.9315   -2.5395 C   0  0  0  0  0  4           0  0  0
    0.0000    0.0000    0.0000 C   0  0  0  0  0  4           0  0  0
   -2.8291   -0.0022   -0.1062 C   0  0  0  0  0  4           0  0  0
   -0.7663    0.0000    1.1751 C   0  0  0  0  0  4           0  0  0
   -0.6803    0.0026   -1.2282 C   0  0  0  0  0  4           0  0  0
   -2.1648   -0.0016    1.1246 C   0  0  0  0  0  4           0  0  0
   -2.0783    0.0009   -1.2854 C   0  0  0  0  0  4           0  0  0
   -4.3109   -0.0075   -0.1162 C   0  0  0  0  0  4           0  0  0
   -6.3426   -0.6442   -1.3661 C   0  0  0  0  0  4           0  0  0
  1  7  1  0     0  0
  2  7  1  0     0  0
  2  8  1  0     0  0
  3 16  2  0     0  0
  4  8  2  0     0  0
  4  9  1  0     0  0
  5  8  1  0     0  0
  5 10  1  0     0  0
  6 16  1  0     0  0
  6 17  1  0     0  0
  7  9  2  0     0  0
 10 12  2  0     0  0
 10 13  1  0     0  0
 11 14  2  0     0  0
 11 15  1  0     0  0
 11 16  1  0     0  0
 12 14  1  0     0  0
 13 15  2  0     0  0
M  END
> <standard_type>
pIC50

> <# Confs.>
20

> <canonical_smiles>
O=C(NC)C1=CC=C(NC2=NC=C(Br)S2)C=C1

> <standard_relation>
=

> <Publication_ID>
nan

> <predicted_activity_value>
6.275724130399211

> <actual_activity_value>
6.236572006437063

> <Compound>
18

> <standard_units>
nM

> hash
586248102528039147

$$$$
18_
XXILIB    08252103493D 0   0.00000     0.00000

 17 18  0     1  0            999 V2000
    3.8299    3.0514    4.0540 Br  0  0  0  0  0  1           0  0  0
    1.7814    1.9337    1.8928 S   0  0  0  0  0  2           0  0  0
   -4.9187   -0.4959    0.8335 O   0  0  0  0  0  2           0  0  0
    3.4162    0.0639    1.2190 N   0  0  0  0  0  3           0  0  0
    1.4006    0.0000    0.0000 N   0  0  0  0  0  3           0  0  0
   -4.9119    0.5519   -1.2217 N   0  0  0  0  0  3           0  0  0
    3.2734    1.8506    2.6863 C   0  0  0  0  0  4           0  0  0
    2.2149    0.5417    0.9383 C   0  0  0  0  0  4           0  0  0
    4.0219    0.8066    2.2140 C   0  0  0  0  0  4           0  0  0
    0.0000    0.0000    0.0000 C   0  0  0  0  0  4           0  0  0
   -2.8291   -0.0022   -0.1062 C   0  0  0  0  0  4           0  0  0
   -0.7663    0.0000    1.1751 C   0  0  0  0  0  4           0  0  0
   -0.6803    0.0026   -1.2282 C   0  0  0  0  0  4           0  0  0
   -2.1648   -0.0016    1.1246 C   0  0  0  0  0  4           0  0  0
   -2.0783    0.0009   -1.2854 C   0  0  0  0  0  4           0  0  0
   -4.3109   -0.0075   -0.1162 C   0  0  0  0  0  4           0  0  0
   -6.3472    0.6154   -1.3656 C   0  0  0  0  0  4           0  0  0
  1  7  1  0     0  0
  2  7  1  0     0  0
  2  8  1  0     0  0
  3 16  2  0     0  0
  4  8  2  0     0  0
  4  9  1  0     0  0
  5  8  1  0     0  0
  5 10  1  0     0  0
  6 16  1  0     0  0
  6 17  1  0     0  0
  7  9  2  0     0  0
 10 12  2  0     0  0
 10 13  1  0     0  0
 11 14  2  0     0  0
 11 15  1  0     0  0
 11 16  1  0     0  0
 12 14  1  0     0  0
 13 15  2  0     0  0
M  END
> <standard_type>
pIC50

> <# Confs.>
20

> <canonical_smiles>
O=C(NC)C1=CC=C(NC2=NC=C(Br)S2)C=C1

> <standard_relation>
=

> <Publication_ID>
nan

> <predicted_activity_value>
6.275724130399211

> <actual_activity_value>
6.236572006437063

> <Compound>
18

> <standard_units>
nM

> hash
586248102528039147

$$$$
18_
XXILIB    08252103493D 0   0.00000     0.00000

 17 18  0     1  0            999 V2000
    3.8371   -3.0622    4.0416 Br  0  0  0  0  0  1           0  0  0
    1.7814   -1.9337    1.8928 S   0  0  0  0  0  2           0  0  0
   -4.9187   -0.4959    0.8335 O   0  0  0  0  0  2           0  0  0
    3.4170   -0.0652    1.2175 N   0  0  0  0  0  3           0  0  0
    1.4006   -0.0000    0.0000 N   0  0  0  0  0  3           0  0  0
   -4.9119    0.5519   -1.2217 N   0  0  0  0  0  3           0  0  0
    3.2763   -1.8549    2.6814 C   0  0  0  0  0  4           0  0  0
    2.2149   -0.5417    0.9383 C   0  0  0  0  0  4           0  0  0
    4.0245   -0.8104    2.2096 C   0  0  0  0  0  4           0  0  0
    0.0000    0.0000    0.0000 C   0  0  0  0  0  4           0  0  0
   -2.8291   -0.0022   -0.1062 C   0  0  0  0  0  4           0  0  0
   -0.7663    0.0000    1.1751 C   0  0  0  0  0  4           0  0  0
   -0.6803    0.0026   -1.2282 C   0  0  0  0  0  4           0  0  0
   -2.1648   -0.0016    1.1246 C   0  0  0  0  0  4           0  0  0
   -2.0783    0.0009   -1.2854 C   0  0  0  0  0  4           0  0  0
   -4.3109   -0.0075   -0.1162 C   0  0  0  0  0  4           0  0  0
   -6.3472    0.6154   -1.3656 C   0  0  0  0  0  4           0  0  0
  1  7  1  0     0  0
  2  7  1  0     0  0
  2  8  1  0     0  0
  3 16  2  0     0  0
  4  8  2  0     0  0
  4  9  1  0     0  0
  5  8  1  0     0  0
  5 10  1  0     0  0
  6 16  1  0     0  0
  6 17  1  0     0  0
  7  9  2  0     0  0
 10 12  2  0     0  0
 10 13  1  0     0  0
 11 14  2  0     0  0
 11 15  1  0     0  0
 11 16  1  0     0  0
 12 14  1  0     0  0
 13 15  2  0     0  0
M  END
> <standard_type>
pIC50

> <# Confs.>
20

> <canonical_smiles>
O=C(NC)C1=CC=C(NC2=NC=C(Br)S2)C=C1

> <standard_relation>
=

> <Publication_ID>
nan

> <predicted_activity_value>
6.275724130399211

> <actual_activity_value>
6.236572006437063

> <Compound>
18

> <standard_units>
nM

> hash
586248102528039147

$$$$
18_
XXILIB    08252103493D 0   0.00000     0.00000

 17 18  0     1  0            999 V2000
    3.7000   -4.4509    2.5593 Br  0  0  0  0  0  1           0  0  0
    1.6254   -2.3584    1.3616 S   0  0  0  0  0  2           0  0  0
   -4.9223    0.4761    0.8337 O   0  0  0  0  0  2           0  0  0
    3.5351   -0.8650    0.4982 N   0  0  0  0  0  3           0  0  0
    1.4006    0.0000    0.0000 N   0  0  0  0  0  3           0  0  0
   -4.9079   -0.5707   -1.2220 N   0  0  0  0  0  3           0  0  0
    3.2186   -2.8536    1.6434 C   0  0  0  0  0  4           0  0  0
    2.2149   -0.9383    0.5417 C   0  0  0  0  0  4           0  0  0
    4.1101   -1.9539    1.1244 C   0  0  0  0  0  4           0  0  0
    0.0000    0.0000    0.0000 C   0  0  0  0  0  4           0  0  0
   -2.8291   -0.0022   -0.1062 C   0  0  0  0  0  4           0  0  0
   -0.7663    0.0000    1.1751 C   0  0  0  0  0  4           0  0  0
   -0.6803    0.0026   -1.2282 C   0  0  0  0  0  4           0  0  0
   -2.1648   -0.0016    1.1246 C   0  0  0  0  0  4           0  0  0
   -2.0783    0.0009   -1.2854 C   0  0  0  0  0  4           0  0  0
   -4.3109   -0.0075   -0.1162 C   0  0  0  0  0  4           0  0  0
   -6.3426   -0.6442   -1.3661 C   0  0  0  0  0  4           0  0  0
  1  7  1  0     0  0
  2  7  1  0     0  0
  2  8  1  0     0  0
  3 16  2  0     0  0
  4  8  2  0     0  0
  4  9  1  0     0  0
  5  8  1  0     0  0
  5 10  1  0     0  0
  6 16  1  0     0  0
  6 17  1  0     0  0
  7  9  2  0     0  0
 10 12  2  0     0  0
 10 13  1  0     0  0
 11 14  2  0     0  0
 11 15  1  0     0  0
 11 16  1  0     0  0
 12 14  1  0     0  0
 13 15  2  0     0  0
M  END
> <standard_type>
pIC50

> <# Confs.>
20

> <canonical_smiles>
O=C(NC)C1=CC=C(NC2=NC=C(Br)S2)C=C1

> <standard_relation>
=

> <Publication_ID>
nan

> <predicted_activity_value>
6.275724130399211

> <actual_activity_value>
6.236572006437063

> <Compound>
18

> <standard_units>
nM

> hash
586248102528039147

$$$$
18_
XXILIB    08252103493D 0   0.00000     0.00000

 17 18  0     1  0            999 V2000
    3.7000    5.1343    0.0090 Br  0  0  0  0  0  1           0  0  0
    1.6254    2.7233    0.0000 S   0  0  0  0  0  2           0  0  0
   -4.9187   -0.4959    0.8335 O   0  0  0  0  0  2           0  0  0
    3.5351    0.9982    0.0011 N   0  0  0  0  0  3           0  0  0
    1.4006    0.0000    0.0000 N   0  0  0  0  0  3           0  0  0
   -4.9119    0.5519   -1.2217 N   0  0  0  0  0  3           0  0  0
    3.2186    3.2930    0.0036 C   0  0  0  0  0  4           0  0  0
    2.2149    1.0834    0.0000 C   0  0  0  0  0  4           0  0  0
    4.1101    2.2544    0.0032 C   0  0  0  0  0  4           0  0  0
    0.0000    0.0000    0.0000 C   0  0  0  0  0  4           0  0  0
   -2.8291   -0.0022   -0.1062 C   0  0  0  0  0  4           0  0  0
   -0.7663    0.0000    1.1751 C   0  0  0  0  0  4           0  0  0
   -0.6803    0.0026   -1.2282 C   0  0  0  0  0  4           0  0  0
   -2.1648   -0.0016    1.1246 C   0  0  0  0  0  4           0  0  0
   -2.0783    0.0009   -1.2854 C   0  0  0  0  0  4           0  0  0
   -4.3109   -0.0075   -0.1162 C   0  0  0  0  0  4           0  0  0
   -6.3472    0.6154   -1.3656 C   0  0  0  0  0  4           0  0  0
  1  7  1  0     0  0
  2  7  1  0     0  0
  2  8  1  0     0  0
  3 16  2  0     0  0
  4  8  2  0     0  0
  4  9  1  0     0  0
  5  8  1  0     0  0
  5 10  1  0     0  0
  6 16  1  0     0  0
  6 17  1  0     0  0
  7  9  2  0     0  0
 10 12  2  0     0  0
 10 13  1  0     0  0
 11 14  2  0     0  0
 11 15  1  0     0  0
 11 16  1  0     0  0
 12 14  1  0     0  0
 13 15  2  0     0  0
M  END
> <standard_type>
pIC50

> <# Confs.>
20

> <canonical_smiles>
O=C(NC)C1=CC=C(NC2=NC=C(Br)S2)C=C1

> <standard_relation>
=

> <Publication_ID>
nan

> <predicted_activity_value>
6.275724130399211

> <actual_activity_value>
6.236572006437063

> <Compound>
18

> <standard_units>
nM

> hash
586248102528039147

$$$$
18_
XXILIB    08252103493D 0   0.00000     0.00000

 17 18  0     1  0            999 V2000
    3.8299   -3.0514   -4.0540 Br  0  0  0  0  0  1           0  0  0
    1.7814   -1.9337   -1.8928 S   0  0  0  0  0  2           0  0  0
   -4.9187   -0.4959    0.8335 O   0  0  0  0  0  2           0  0  0
    3.4162   -0.0639   -1.2190 N   0  0  0  0  0  3           0  0  0
    1.4006   -0.0000   -0.0000 N   0  0  0  0  0  3           0  0  0
   -4.9119    0.5519   -1.2217 N   0  0  0  0  0  3           0  0  0
    3.2734   -1.8506   -2.6863 C   0  0  0  0  0  4           0  0  0
    2.2149   -0.5417   -0.9383 C   0  0  0  0  0  4           0  0  0
    4.0219   -0.8066   -2.2140 C   0  0  0  0  0  4           0  0  0
    0.0000    0.0000    0.0000 C   0  0  0  0  0  4           0  0  0
   -2.8291   -0.0022   -0.1062 C   0  0  0  0  0  4           0  0  0
   -0.7663    0.0000    1.1751 C   0  0  0  0  0  4           0  0  0
   -0.6803    0.0026   -1.2282 C   0  0  0  0  0  4           0  0  0
   -2.1648   -0.0016    1.1246 C   0  0  0  0  0  4           0  0  0
   -2.0783    0.0009   -1.2854 C   0  0  0  0  0  4           0  0  0
   -4.3109   -0.0075   -0.1162 C   0  0  0  0  0  4           0  0  0
   -6.3472    0.6154   -1.3656 C   0  0  0  0  0  4           0  0  0
  1  7  1  0     0  0
  2  7  1  0     0  0
  2  8  1  0     0  0
  3 16  2  0     0  0
  4  8  2  0     0  0
  4  9  1  0     0  0
  5  8  1  0     0  0
  5 10  1  0     0  0
  6 16  1  0     0  0
  6 17  1  0     0  0
  7  9  2  0     0  0
 10 12  2  0     0  0
 10 13  1  0     0  0
 11 14  2  0     0  0
 11 15  1  0     0  0
 11 16  1  0     0  0
 12 14  1  0     0  0
 13 15  2  0     0  0
M  END
> <standard_type>
pIC50

> <# Confs.>
20

> <canonical_smiles>
O=C(NC)C1=CC=C(NC2=NC=C(Br)S2)C=C1

> <standard_relation>
=

> <Publication_ID>
nan

> <predicted_activity_value>
6.275724130399211

> <actual_activity_value>
6.236572006437063

> <Compound>
18

> <standard_units>
nM

> hash
586248102528039147

$$$$
18_
XXILIB    08252103493D 0   0.00000     0.00000

 17 18  0     1  0            999 V2000
    3.8371    3.0622   -4.0416 Br  0  0  0  0  0  1           0  0  0
    1.7814    1.9337   -1.8928 S   0  0  0  0  0  2           0  0  0
   -4.9187   -0.4959    0.8335 O   0  0  0  0  0  2           0  0  0
    3.4170    0.0652   -1.2175 N   0  0  0  0  0  3           0  0  0
    1.4006    0.0000   -0.0000 N   0  0  0  0  0  3           0  0  0
   -4.9119    0.5519   -1.2217 N   0  0  0  0  0  3           0  0  0
    3.2763    1.8549   -2.6814 C   0  0  0  0  0  4           0  0  0
    2.2149    0.5417   -0.9383 C   0  0  0  0  0  4           0  0  0
    4.0245    0.8104   -2.2096 C   0  0  0  0  0  4           0  0  0
    0.0000    0.0000    0.0000 C   0  0  0  0  0  4           0  0  0
   -2.8291   -0.0022   -0.1062 C   0  0  0  0  0  4           0  0  0
   -0.7663    0.0000    1.1751 C   0  0  0  0  0  4           0  0  0
   -0.6803    0.0026   -1.2282 C   0  0  0  0  0  4           0  0  0
   -2.1648   -0.0016    1.1246 C   0  0  0  0  0  4           0  0  0
   -2.0783    0.0009   -1.2854 C   0  0  0  0  0  4           0  0  0
   -4.3109   -0.0075   -0.1162 C   0  0  0  0  0  4           0  0  0
   -6.3472    0.6154   -1.3656 C   0  0  0  0  0  4           0  0  0
  1  7  1  0     0  0
  2  7  1  0     0  0
  2  8  1  0     0  0
  3 16  2  0     0  0
  4  8  2  0     0  0
  4  9  1  0     0  0
  5  8  1  0     0  0
  5 10  1  0     0  0
  6 16  1  0     0  0
  6 17  1  0     0  0
  7  9  2  0     0  0
 10 12  2  0     0  0
 10 13  1  0     0  0
 11 14  2  0     0  0
 11 15  1  0     0  0
 11 16  1  0     0  0
 12 14  1  0     0  0
 13 15  2  0     0  0
M  END
> <standard_type>
pIC50

> <# Confs.>
20

> <canonical_smiles>
O=C(NC)C1=CC=C(NC2=NC=C(Br)S2)C=C1

> <standard_relation>
=

> <Publication_ID>
nan

> <predicted_activity_value>
6.275724130399211

> <actual_activity_value>
6.236572006437063

> <Compound>
18

> <standard_units>
nM

> hash
586248102528039147

$$$$
18_
XXILIB    08252103493D 0   0.00000     0.00000

 17 18  0     1  0            999 V2000
    5.6932    3.6361   -0.0090 Br  0  0  0  0  0  1           0  0  0
    3.9540    0.9730   -0.0000 S   0  0  0  0  0  2           0  0  0
   -4.9187   -0.4959    0.8335 O   0  0  0  0  0  2           0  0  0
    1.7661    2.3279   -0.0011 N   0  0  0  0  0  3           0  0  0
    1.4006    0.0000    0.0000 N   0  0  0  0  0  3           0  0  0
   -4.9119    0.5519   -1.2217 N   0  0  0  0  0  3           0  0  0
    4.0583    2.6618   -0.0036 C   0  0  0  0  0  4           0  0  0
    2.2149    1.0834    0.0000 C   0  0  0  0  0  4           0  0  0
    2.8128    3.2294   -0.0032 C   0  0  0  0  0  4           0  0  0
    0.0000    0.0000    0.0000 C   0  0  0  0  0  4           0  0  0
   -2.8291   -0.0022   -0.1062 C   0  0  0  0  0  4           0  0  0
   -0.7663    0.0000    1.1751 C   0  0  0  0  0  4           0  0  0
   -0.6803    0.0026   -1.2282 C   0  0  0  0  0  4           0  0  0
   -2.1648   -0.0016    1.1246 C   0  0  0  0  0  4           0  0  0
   -2.0783    0.0009   -1.2854 C   0  0  0  0  0  4           0  0  0
   -4.3109   -0.0075   -0.1162 C   0  0  0  0  0  4           0  0  0
   -6.3472    0.6154   -1.3656 C   0  0  0  0  0  4           0  0  0
  1  7  1  0     0  0
  2  7  1  0     0  0
  2  8  1  0     0  0
  3 16  2  0     0  0
  4  8  2  0     0  0
  4  9  1  0     0  0
  5  8  1  0     0  0
  5 10  1  0     0  0
  6 16  1  0     0  0
  6 17  1  0     0  0
  7  9  2  0     0  0
 10 12  2  0     0  0
 10 13  1  0     0  0
 11 14  2  0     0  0
 11 15  1  0     0  0
 11 16  1  0     0  0
 12 14  1  0     0  0
 13 15  2  0     0  0
M  END
> <standard_type>
pIC50

> <# Confs.>
20

> <canonical_smiles>
O=C(NC)C1=CC=C(NC2=NC=C(Br)S2)C=C1

> <standard_relation>
=

> <Publication_ID>
nan

> <predicted_activity_value>
6.275724130399211

> <actual_activity_value>
6.236572006437063

> <Compound>
18

> <standard_units>
nM

> hash
586248102528039147

$$$$
18_
XXILIB    08252103493D 0   0.00000     0.00000

 17 18  0     1  0            999 V2000
    5.6932   -3.6361    0.0090 Br  0  0  0  0  0  1           0  0  0
    3.9540   -0.9730    0.0000 S   0  0  0  0  0  2           0  0  0
   -4.9223    0.4761    0.8337 O   0  0  0  0  0  2           0  0  0
    1.7661   -2.3279    0.0011 N   0  0  0  0  0  3           0  0  0
    1.4006    0.0000    0.0000 N   0  0  0  0  0  3           0  0  0
   -4.9079   -0.5707   -1.2220 N   0  0  0  0  0  3           0  0  0
    4.0583   -2.6618    0.0036 C   0  0  0  0  0  4           0  0  0
    2.2149   -1.0834    0.0000 C   0  0  0  0  0  4           0  0  0
    2.8128   -3.2294    0.0032 C   0  0  0  0  0  4           0  0  0
    0.0000    0.0000    0.0000 C   0  0  0  0  0  4           0  0  0
   -2.8291   -0.0022   -0.1062 C   0  0  0  0  0  4           0  0  0
   -0.7663    0.0000    1.1751 C   0  0  0  0  0  4           0  0  0
   -0.6803    0.0026   -1.2282 C   0  0  0  0  0  4           0  0  0
   -2.1648   -0.0016    1.1246 C   0  0  0  0  0  4           0  0  0
   -2.0783    0.0009   -1.2854 C   0  0  0  0  0  4           0  0  0
   -4.3109   -0.0075   -0.1162 C   0  0  0  0  0  4           0  0  0
   -6.3426   -0.6442   -1.3661 C   0  0  0  0  0  4           0  0  0
  1  7  1  0     0  0
  2  7  1  0     0  0
  2  8  1  0     0  0
  3 16  2  0     0  0
  4  8  2  0     0  0
  4  9  1  0     0  0
  5  8  1  0     0  0
  5 10  1  0     0  0
  6 16  1  0     0  0
  6 17  1  0     0  0
  7  9  2  0     0  0
 10 12  2  0     0  0
 10 13  1  0     0  0
 11 14  2  0     0  0
 11 15  1  0     0  0
 11 16  1  0     0  0
 12 14  1  0     0  0
 13 15  2  0     0  0
M  END
> <standard_type>
pIC50

> <# Confs.>
20

> <canonical_smiles>
O=C(NC)C1=CC=C(NC2=NC=C(Br)S2)C=C1

> <standard_relation>
=

> <Publication_ID>
nan

> <predicted_activity_value>
6.275724130399211

> <actual_activity_value>
6.236572006437063

> <Compound>
18

> <standard_units>
nM

> hash
586248102528039147

$$$$
18_
XXILIB    08252103493D 0   0.00000     0.00000

 17 18  0     1  0            999 V2000
    3.8371    5.0312    0.6312 Br  0  0  0  0  0  1           0  0  0
    1.7814    2.6060    0.7283 S   0  0  0  0  0  2           0  0  0
   -4.9223    0.4761    0.8337 O   0  0  0  0  0  2           0  0  0
    3.4170    1.0870   -0.5523 N   0  0  0  0  0  3           0  0  0
    1.4006    0.0000    0.0000 N   0  0  0  0  0  3           0  0  0
   -4.9079   -0.5707   -1.2220 N   0  0  0  0  0  3           0  0  0
    3.2763    3.2496    0.2657 C   0  0  0  0  0  4           0  0  0
    2.2149    1.0834    0.0000 C   0  0  0  0  0  4           0  0  0
    4.0245    2.3188   -0.4030 C   0  0  0  0  0  4           0  0  0
    0.0000    0.0000    0.0000 C   0  0  0  0  0  4           0  0  0
   -2.8291   -0.0022   -0.1062 C   0  0  0  0  0  4           0  0  0
   -0.7663    0.0000    1.1751 C   0  0  0  0  0  4           0  0  0
   -0.6803    0.0026   -1.2282 C   0  0  0  0  0  4           0  0  0
   -2.1648   -0.0016    1.1246 C   0  0  0  0  0  4           0  0  0
   -2.0783    0.0009   -1.2854 C   0  0  0  0  0  4           0  0  0
   -4.3109   -0.0075   -0.1162 C   0  0  0  0  0  4           0  0  0
   -6.3426   -0.6442   -1.3661 C   0  0  0  0  0  4           0  0  0
  1  7  1  0     0  0
  2  7  1  0     0  0
  2  8  1  0     0  0
  3 16  2  0     0  0
  4  8  2  0     0  0
  4  9  1  0     0  0
  5  8  1  0     0  0
  5 10  1  0     0  0
  6 16  1  0     0  0
  6 17  1  0     0  0
  7  9  2  0     0  0
 10 12  2  0     0  0
 10 13  1  0     0  0
 11 14  2  0     0  0
 11 15  1  0     0  0
 11 16  1  0     0  0
 12 14  1  0     0  0
 13 15  2  0     0  0
M  END
> <standard_type>
pIC50

> <# Confs.>
20

> <canonical_smiles>
O=C(NC)C1=CC=C(NC2=NC=C(Br)S2)C=C1

> <standard_relation>
=

> <Publication_ID>
nan

> <predicted_activity_value>
6.275724130399211

> <actual_activity_value>
6.236572006437063

> <Compound>
18

> <standard_units>
nM

> hash
586248102528039147

$$$$
18_
XXILIB    08252103493D 0   0.00000     0.00000

 17 18  0     1  0            999 V2000
    3.7000    2.5593    4.4509 Br  0  0  0  0  0  1           0  0  0
    1.6254    1.3616    2.3584 S   0  0  0  0  0  2           0  0  0
   -4.9223    0.4761    0.8337 O   0  0  0  0  0  2           0  0  0
    3.5351    0.4982    0.8650 N   0  0  0  0  0  3           0  0  0
    1.4006    0.0000    0.0000 N   0  0  0  0  0  3           0  0  0
   -4.9079   -0.5707   -1.2220 N   0  0  0  0  0  3           0  0  0
    3.2186    1.6434    2.8536 C   0  0  0  0  0  4           0  0  0
    2.2149    0.5417    0.9383 C   0  0  0  0  0  4           0  0  0
    4.1101    1.1244    1.9539 C   0  0  0  0  0  4           0  0  0
    0.0000    0.0000    0.0000 C   0  0  0  0  0  4           0  0  0
   -2.8291   -0.0022   -0.1062 C   0  0  0  0  0  4           0  0  0
   -0.7663    0.0000    1.1751 C   0  0  0  0  0  4           0  0  0
   -0.6803    0.0026   -1.2282 C   0  0  0  0  0  4           0  0  0
   -2.1648   -0.0016    1.1246 C   0  0  0  0  0  4           0  0  0
   -2.0783    0.0009   -1.2854 C   0  0  0  0  0  4           0  0  0
   -4.3109   -0.0075   -0.1162 C   0  0  0  0  0  4           0  0  0
   -6.3426   -0.6442   -1.3661 C   0  0  0  0  0  4           0  0  0
  1  7  1  0     0  0
  2  7  1  0     0  0
  2  8  1  0     0  0
  3 16  2  0     0  0
  4  8  2  0     0  0
  4  9  1  0     0  0
  5  8  1  0     0  0
  5 10  1  0     0  0
  6 16  1  0     0  0
  6 17  1  0     0  0
  7  9  2  0     0  0
 10 12  2  0     0  0
 10 13  1  0     0  0
 11 14  2  0     0  0
 11 15  1  0     0  0
 11 16  1  0     0  0
 12 14  1  0     0  0
 13 15  2  0     0  0
M  END
> <standard_type>
pIC50

> <# Confs.>
20

> <canonical_smiles>
O=C(NC)C1=CC=C(NC2=NC=C(Br)S2)C=C1

> <standard_relation>
=

> <Publication_ID>
nan

> <predicted_activity_value>
6.275724130399211

> <actual_activity_value>
6.236572006437063

> <Compound>
18

> <standard_units>
nM

> hash
586248102528039147

$$$$
18_
XXILIB    08252103493D 0   0.00000     0.00000

 17 18  0     1  0            999 V2000
    5.5633   -3.7337   -0.6156 Br  0  0  0  0  0  1           0  0  0
    3.7980   -1.0903   -0.7283 S   0  0  0  0  0  2           0  0  0
   -4.9187   -0.4959    0.8335 O   0  0  0  0  0  2           0  0  0
    1.8850   -2.2385    0.5542 N   0  0  0  0  0  3           0  0  0
    1.4006   -0.0000    0.0000 N   0  0  0  0  0  3           0  0  0
   -4.9119    0.5519   -1.2217 N   0  0  0  0  0  3           0  0  0
    4.0035   -2.7030   -0.2595 C   0  0  0  0  0  4           0  0  0
    2.2149   -1.0834    0.0000 C   0  0  0  0  0  4           0  0  0
    2.9010   -3.1632    0.4085 C   0  0  0  0  0  4           0  0  0
    0.0000    0.0000    0.0000 C   0  0  0  0  0  4           0  0  0
   -2.8291   -0.0022   -0.1062 C   0  0  0  0  0  4           0  0  0
   -0.7663    0.0000    1.1751 C   0  0  0  0  0  4           0  0  0
   -0.6803    0.0026   -1.2282 C   0  0  0  0  0  4           0  0  0
   -2.1648   -0.0016    1.1246 C   0  0  0  0  0  4           0  0  0
   -2.0783    0.0009   -1.2854 C   0  0  0  0  0  4           0  0  0
   -4.3109   -0.0075   -0.1162 C   0  0  0  0  0  4           0  0  0
   -6.3472    0.6154   -1.3656 C   0  0  0  0  0  4           0  0  0
  1  7  1  0     0  0
  2  7  1  0     0  0
  2  8  1  0     0  0
  3 16  2  0     0  0
  4  8  2  0     0  0
  4  9  1  0     0  0
  5  8  1  0     0  0
  5 10  1  0     0  0
  6 16  1  0     0  0
  6 17  1  0     0  0
  7  9  2  0     0  0
 10 12  2  0     0  0
 10 13  1  0     0  0
 11 14  2  0     0  0
 11 15  1  0     0  0
 11 16  1  0     0  0
 12 14  1  0     0  0
 13 15  2  0     0  0
M  END
> <standard_type>
pIC50

> <# Confs.>
20

> <canonical_smiles>
O=C(NC)C1=CC=C(NC2=NC=C(Br)S2)C=C1

> <standard_relation>
=

> <Publication_ID>
nan

> <predicted_activity_value>
6.275724130399211

> <actual_activity_value>
6.236572006437063

> <Compound>
18

> <standard_units>
nM

> hash
586248102528039147

$$$$
18_
XXILIB    08252103493D 0   0.00000     0.00000

 17 18  0     1  0            999 V2000
    5.5561    3.7392   -0.6312 Br  0  0  0  0  0  1           0  0  0
    3.7980    1.0903   -0.7283 S   0  0  0  0  0  2           0  0  0
   -4.9223    0.4761    0.8337 O   0  0  0  0  0  2           0  0  0
    1.8842    2.2391    0.5523 N   0  0  0  0  0  3           0  0  0
    1.4006    0.0000    0.0000 N   0  0  0  0  0  3           0  0  0
   -4.9079   -0.5707   -1.2220 N   0  0  0  0  0  3           0  0  0
    4.0006    2.7051   -0.2657 C   0  0  0  0  0  4           0  0  0
    2.2149    1.0834    0.0000 C   0  0  0  0  0  4           0  0  0
    2.8985    3.1651    0.4030 C   0  0  0  0  0  4           0  0  0
    0.0000    0.0000    0.0000 C   0  0  0  0  0  4           0  0  0
   -2.8291   -0.0022   -0.1062 C   0  0  0  0  0  4           0  0  0
   -0.7663    0.0000    1.1751 C   0  0  0  0  0  4           0  0  0
   -0.6803    0.0026   -1.2282 C   0  0  0  0  0  4           0  0  0
   -2.1648   -0.0016    1.1246 C   0  0  0  0  0  4           0  0  0
   -2.0783    0.0009   -1.2854 C   0  0  0  0  0  4           0  0  0
   -4.3109   -0.0075   -0.1162 C   0  0  0  0  0  4           0  0  0
   -6.3426   -0.6442   -1.3661 C   0  0  0  0  0  4           0  0  0
  1  7  1  0     0  0
  2  7  1  0     0  0
  2  8  1  0     0  0
  3 16  2  0     0  0
  4  8  2  0     0  0
  4  9  1  0     0  0
  5  8  1  0     0  0
  5 10  1  0     0  0
  6 16  1  0     0  0
  6 17  1  0     0  0
  7  9  2  0     0  0
 10 12  2  0     0  0
 10 13  1  0     0  0
 11 14  2  0     0  0
 11 15  1  0     0  0
 11 16  1  0     0  0
 12 14  1  0     0  0
 13 15  2  0     0  0
M  END
> <standard_type>
pIC50

> <# Confs.>
20

> <canonical_smiles>
O=C(NC)C1=CC=C(NC2=NC=C(Br)S2)C=C1

> <standard_relation>
=

> <Publication_ID>
nan

> <predicted_activity_value>
6.275724130399211

> <actual_activity_value>
6.236572006437063

> <Compound>
18

> <standard_units>
nM

> hash
586248102528039147

$$$$
17_
XXILIB    08252103493D 0   0.00000     0.00000

 32 35  0     1  0            999 V2000
   -2.5206    4.4265    1.0560 F   0  0  0  0  0  1           0  0  0
   -2.2375    6.6012    0.3487 F   0  0  0  0  0  1           0  0  0
   -2.5453    6.9059   -1.7776 F   0  0  0  0  0  1           0  0  0
   -4.0646    7.5438   -0.3589 F   0  0  0  0  0  1           0  0  0
   -4.2101    1.7200    2.1113 O   0  0  0  0  0  2           0  0  0
    4.6334    2.6060   -6.9161 N   0  0  0  0  0  3           0  0  0
    3.8928    1.9395   -6.0173 N   0  0  0  0  0  3           0  0  0
    2.4101    1.2112   -1.9026 N   0  0  0  0  0  3           0  0  0
    3.3115    2.5014   -3.7307 N   0  0  0  0  0  3           0  0  0
   -2.6060    1.0723    0.5476 N   0  0  1  0  0  3           0  0  0
   -0.0000    0.0000    0.0000 N   0  0  1  0  0  3           0  0  0
   -3.4757    4.1761    0.1457 C   0  0  0  0  0  4           0  0  0
    3.9161    2.7239   -4.9278 C   0  0  0  0  0  4           0  0  0
    3.0262    1.2601   -3.1142 C   0  0  0  0  0  4           0  0  0
    2.1376    0.0000   -1.3531 C   0  0  0  0  0  4           0  0  0
    5.1326    3.7850   -6.4558 C   0  0  0  0  0  4           0  0  0
   -3.8488    5.2081   -0.7254 C   0  0  0  0  0  4           0  0  0
   -4.0760    2.9111    0.0835 C   0  0  0  0  0  4           0  0  0
    4.6870    3.8943   -5.1624 C   0  0  0  0  0  4           0  0  0
    3.3758    0.0908   -3.7926 C   0  0  0  0  0  4           0  0  0
    2.4712   -1.1971   -1.9748 C   0  0  0  0  0  4           0  0  0
   -4.8385    4.9592   -1.6797 C   0  0  0  0  0  4           0  0  0
   -5.0676    2.6838   -0.8781 C   0  0  0  0  0  4           0  0  0
    3.0967   -1.1426   -3.2123 C   0  0  0  0  0  4           0  0  0
   -5.4441    3.7046   -1.7538 C   0  0  0  0  0  4           0  0  0
   -3.1831    6.5423   -0.6302 C   0  0  2  0  0  4           0  0  0
   -3.6483    1.8441    1.0299 C   0  0  0  0  0  4           0  0  0
    1.4664    0.0000   -0.0000 C   0  0  0  0  0  4           0  0  0
   -2.0719   -0.0181    1.3574 C   0  0  0  0  0  4           0  0  0
   -2.0329    1.1727   -0.7970 C   0  0  0  0  0  4           0  0  0
   -0.5431    0.0000    1.3715 C   0  0  0  0  0  4           0  0  0
   -0.5046    1.1698   -0.7407 C   0  0  0  0  0  4           0  0  0
  1 12  1  0     0  0
  2 26  1  0     0  0
  3 26  1  0     0  0
  4 26  1  0     0  0
  5 27  2  0     0  0
  6  7  1  0     0  0
  6 16  1  0     0  0
  7 13  2  0     0  0
  8 14  1  0     0  0
  8 15  2  0     0  0
  9 13  1  0     0  0
  9 14  1  0     0  0
 10 27  1  0     0  0
 10 29  1  0     0  0
 10 30  1  0     0  0
 11 28  1  0     0  0
 11 31  1  0     0  0
 11 32  1  0     0  0
 12 17  1  0     0  0
 12 18  2  0     0  0
 13 19  1  0     0  0
 14 20  2  0     0  0
 15 21  1  0     0  0
 15 28  1  0     0  0
 16 19  2  0     0  0
 17 22  2  0     0  0
 17 26  1  0     0  0
 18 23  1  0     0  0
 18 27  1  0     0  0
 20 24  1  0     0  0
 21 24  2  0     0  0
 22 25  1  0     0  0
 23 25  2  0     0  0
 29 31  1  0     0  0
 30 32  1  0     0  0
M  END
> <standard_type>
pIC50

> <# Confs.>
25

> <canonical_smiles>
FC1=C(C(N2CCN(CC3=NC(NC4=NNC=C4)=CC=C3)CC2)=O)C=CC=C1C(F)(F)F

> <standard_relation>
=

> <Publication_ID>
nan

> <predicted_activity_value>
6.292429823902063

> <actual_activity_value>
6.275724130399211

> <Compound>
17

> <standard_units>
nM

> hash
1549603100698601883

$$$$
17_
XXILIB    08252103493D 0   0.00000     0.00000

 32 35  0     1  0            999 V2000
   -2.5206    4.4265    1.0560 F   0  0  0  0  0  1           0  0  0
   -2.2375    6.6012    0.3487 F   0  0  0  0  0  1           0  0  0
   -2.5453    6.9059   -1.7776 F   0  0  0  0  0  1           0  0  0
   -4.0646    7.5438   -0.3589 F   0  0  0  0  0  1           0  0  0
   -4.2101    1.7200    2.1113 O   0  0  0  0  0  2           0  0  0
    5.0565   -4.5047    5.6100 N   0  0  0  0  0  3           0  0  0
    4.7891   -3.8564    4.4660 N   0  0  0  0  0  3           0  0  0
    2.4101   -1.0421    2.0002 N   0  0  0  0  0  3           0  0  0
    3.3203   -1.9764    4.0295 N   0  0  0  0  0  3           0  0  0
   -2.6060    1.0723    0.5476 N   0  0  1  0  0  3           0  0  0
   -0.0000    0.0000    0.0000 N   0  0  1  0  0  3           0  0  0
   -3.4757    4.1761    0.1457 C   0  0  0  0  0  4           0  0  0
    3.9075   -2.9093    4.8250 C   0  0  0  0  0  4           0  0  0
    3.0020   -2.0773    2.6543 C   0  0  0  0  0  4           0  0  0
    2.1376   -1.1718    0.6765 C   0  0  0  0  0  4           0  0  0
    4.3880   -4.0183    6.6905 C   0  0  0  0  0  4           0  0  0
   -3.8488    5.2081   -0.7254 C   0  0  0  0  0  4           0  0  0
   -4.0760    2.9111    0.0835 C   0  0  0  0  0  4           0  0  0
    3.6279   -2.9786    6.2164 C   0  0  0  0  0  4           0  0  0
    3.3306   -3.2585    1.9861 C   0  0  0  0  0  4           0  0  0
    2.4307   -2.3262   -0.0392 C   0  0  0  0  0  4           0  0  0
   -4.8385    4.9592   -1.6797 C   0  0  0  0  0  4           0  0  0
   -5.0676    2.6838   -0.8781 C   0  0  0  0  0  4           0  0  0
    3.0375   -3.3787    0.6314 C   0  0  0  0  0  4           0  0  0
   -5.4441    3.7046   -1.7538 C   0  0  0  0  0  4           0  0  0
   -3.1831    6.5423   -0.6302 C   0  0  2  0  0  4           0  0  0
   -3.6483    1.8441    1.0299 C   0  0  0  0  0  4           0  0  0
    1.4664    0.0000   -0.0000 C   0  0  0  0  0  4           0  0  0
   -2.0719   -0.0181    1.3574 C   0  0  0  0  0  4           0  0  0
   -2.0329    1.1727   -0.7970 C   0  0  0  0  0  4           0  0  0
   -0.5431    0.0000    1.3715 C   0  0  0  0  0  4           0  0  0
   -0.5046    1.1698   -0.7407 C   0  0  0  0  0  4           0  0  0
  1 12  1  0     0  0
  2 26  1  0     0  0
  3 26  1  0     0  0
  4 26  1  0     0  0
  5 27  2  0     0  0
  6  7  1  0     0  0
  6 16  1  0     0  0
  7 13  2  0     0  0
  8 14  1  0     0  0
  8 15  2  0     0  0
  9 13  1  0     0  0
  9 14  1  0     0  0
 10 27  1  0     0  0
 10 29  1  0     0  0
 10 30  1  0     0  0
 11 28  1  0     0  0
 11 31  1  0     0  0
 11 32  1  0     0  0
 12 17  1  0     0  0
 12 18  2  0     0  0
 13 19  1  0     0  0
 14 20  2  0     0  0
 15 21  1  0     0  0
 15 28  1  0     0  0
 16 19  2  0     0  0
 17 22  2  0     0  0
 17 26  1  0     0  0
 18 23  1  0     0  0
 18 27  1  0     0  0
 20 24  1  0     0  0
 21 24  2  0     0  0
 22 25  1  0     0  0
 23 25  2  0     0  0
 29 31  1  0     0  0
 30 32  1  0     0  0
M  END
> <standard_type>
pIC50

> <# Confs.>
25

> <canonical_smiles>
FC1=C(C(N2CCN(CC3=NC(NC4=NNC=C4)=CC=C3)CC2)=O)C=CC=C1C(F)(F)F

> <standard_relation>
=

> <Publication_ID>
nan

> <predicted_activity_value>
6.292429823902063

> <actual_activity_value>
6.275724130399211

> <Compound>
17

> <standard_units>
nM

> hash
1549603100698601883

$$$$
17_
XXILIB    08252103493D 0   0.00000     0.00000

 32 35  0     1  0            999 V2000
   -2.5206    4.4265    1.0560 F   0  0  0  0  0  1           0  0  0
   -2.2375    6.6012    0.3487 F   0  0  0  0  0  1           0  0  0
   -2.5453    6.9059   -1.7776 F   0  0  0  0  0  1           0  0  0
   -4.0646    7.5438   -0.3589 F   0  0  0  0  0  1           0  0  0
   -4.2101    1.7200    2.1113 O   0  0  0  0  0  2           0  0  0
    5.4705   -3.7663    5.6761 N   0  0  0  0  0  3           0  0  0
    4.7092   -3.4644    4.6131 N   0  0  0  0  0  3           0  0  0
    3.1774   -0.8899    1.5027 N   0  0  0  0  0  3           0  0  0
    4.9035   -1.6644    2.9993 N   0  0  0  0  0  3           0  0  0
   -2.6060    1.0723    0.5476 N   0  0  1  0  0  3           0  0  0
   -0.0000    0.0000    0.0000 N   0  0  1  0  0  3           0  0  0
   -3.4757    4.1761    0.1457 C   0  0  0  0  0  4           0  0  0
    5.2893   -2.3696    4.0956 C   0  0  0  0  0  4           0  0  0
    3.8038   -1.9126    2.1441 C   0  0  0  0  0  4           0  0  0
    2.1376   -1.1718    0.6765 C   0  0  0  0  0  4           0  0  0
    6.5156   -2.9164    5.8670 C   0  0  0  0  0  4           0  0  0
   -3.8488    5.2081   -0.7254 C   0  0  0  0  0  4           0  0  0
   -4.0760    2.9111    0.0835 C   0  0  0  0  0  4           0  0  0
    6.4284   -1.9919    4.8566 C   0  0  0  0  0  4           0  0  0
    3.3947   -3.2353    1.9626 C   0  0  0  0  0  4           0  0  0
    1.6783   -2.4661    0.4648 C   0  0  0  0  0  4           0  0  0
   -4.8385    4.9592   -1.6797 C   0  0  0  0  0  4           0  0  0
   -5.0676    2.6838   -0.8781 C   0  0  0  0  0  4           0  0  0
    2.3224   -3.5069    1.1188 C   0  0  0  0  0  4           0  0  0
   -5.4441    3.7046   -1.7538 C   0  0  0  0  0  4           0  0  0
   -3.1831    6.5423   -0.6302 C   0  0  2  0  0  4           0  0  0
   -3.6483    1.8441    1.0299 C   0  0  0  0  0  4           0  0  0
    1.4664    0.0000   -0.0000 C   0  0  0  0  0  4           0  0  0
   -2.0719   -0.0181    1.3574 C   0  0  0  0  0  4           0  0  0
   -2.0329    1.1727   -0.7970 C   0  0  0  0  0  4           0  0  0
   -0.5431    0.0000    1.3715 C   0  0  0  0  0  4           0  0  0
   -0.5046    1.1698   -0.7407 C   0  0  0  0  0  4           0  0  0
  1 12  1  0     0  0
  2 26  1  0     0  0
  3 26  1  0     0  0
  4 26  1  0     0  0
  5 27  2  0     0  0
  6  7  1  0     0  0
  6 16  1  0     0  0
  7 13  2  0     0  0
  8 14  1  0     0  0
  8 15  2  0     0  0
  9 13  1  0     0  0
  9 14  1  0     0  0
 10 27  1  0     0  0
 10 29  1  0     0  0
 10 30  1  0     0  0
 11 28  1  0     0  0
 11 31  1  0     0  0
 11 32  1  0     0  0
 12 17  1  0     0  0
 12 18  2  0     0  0
 13 19  1  0     0  0
 14 20  2  0     0  0
 15 21  1  0     0  0
 15 28  1  0     0  0
 16 19  2  0     0  0
 17 22  2  0     0  0
 17 26  1  0     0  0
 18 23  1  0     0  0
 18 27  1  0     0  0
 20 24  1  0     0  0
 21 24  2  0     0  0
 22 25  1  0     0  0
 23 25  2  0     0  0
 29 31  1  0     0  0
 30 32  1  0     0  0
M  END
> <standard_type>
pIC50

> <# Confs.>
25

> <canonical_smiles>
FC1=C(C(N2CCN(CC3=NC(NC4=NNC=C4)=CC=C3)CC2)=O)C=CC=C1C(F)(F)F

> <standard_relation>
=

> <Publication_ID>
nan

> <predicted_activity_value>
6.292429823902063

> <actual_activity_value>
6.275724130399211

> <Compound>
17

> <standard_units>
nM

> hash
1549603100698601883

$$$$
17_
XXILIB    08252103493D 0   0.00000     0.00000

 32 35  0     1  0            999 V2000
   -5.6436    1.4257   -0.9157 F   0  0  0  0  0  1           0  0  0
   -7.0336    2.0122   -2.6575 F   0  0  0  0  0  1           0  0  0
   -7.6784    4.0840   -2.6390 F   0  0  0  0  0  1           0  0  0
   -6.1545    3.4344   -4.0474 F   0  0  0  0  0  1           0  0  0
   -4.2101    1.7200    2.1113 O   0  0  0  0  0  2           0  0  0
    4.6334    2.6060   -6.9161 N   0  0  0  0  0  3           0  0  0
    3.8928    1.9395   -6.0173 N   0  0  0  0  0  3           0  0  0
    2.4101    1.2112   -1.9026 N   0  0  0  0  0  3           0  0  0
    3.3115    2.5014   -3.7307 N   0  0  0  0  0  3           0  0  0
   -2.6060    1.0723    0.5476 N   0  0  1  0  0  3           0  0  0
   -0.0000    0.0000    0.0000 N   0  0  1  0  0  3           0  0  0
   -5.0754    2.6414   -0.8615 C   0  0  0  0  0  4           0  0  0
    3.9161    2.7239   -4.9278 C   0  0  0  0  0  4           0  0  0
    3.0262    1.2601   -3.1142 C   0  0  0  0  0  4           0  0  0
    2.1376    0.0000   -1.3531 C   0  0  0  0  0  4           0  0  0
    5.1326    3.7850   -6.4558 C   0  0  0  0  0  4           0  0  0
   -5.5069    3.6164   -1.7706 C   0  0  0  0  0  4           0  0  0
   -4.0760    2.9111    0.0835 C   0  0  0  0  0  4           0  0  0
    4.6870    3.8943   -5.1624 C   0  0  0  0  0  4           0  0  0
    3.3758    0.0908   -3.7926 C   0  0  0  0  0  4           0  0  0
    2.4712   -1.1971   -1.9748 C   0  0  0  0  0  4           0  0  0
   -4.9265    4.8863   -1.7220 C   0  0  0  0  0  4           0  0  0
   -3.5058    4.1891    0.1131 C   0  0  0  0  0  4           0  0  0
    3.0967   -1.1426   -3.2123 C   0  0  0  0  0  4           0  0  0
   -3.9314    5.1694   -0.7861 C   0  0  0  0  0  4           0  0  0
   -6.5773    3.2915   -2.7611 C   0  0  2  0  0  4           0  0  0
   -3.6483    1.8441    1.0299 C   0  0  0  0  0  4           0  0  0
    1.4664    0.0000   -0.0000 C   0  0  0  0  0  4           0  0  0
   -2.0719   -0.0181    1.3574 C   0  0  0  0  0  4           0  0  0
   -2.0329    1.1727   -0.7970 C   0  0  0  0  0  4           0  0  0
   -0.5431    0.0000    1.3715 C   0  0  0  0  0  4           0  0  0
   -0.5046    1.1698   -0.7407 C   0  0  0  0  0  4           0  0  0
  1 12  1  0     0  0
  2 26  1  0     0  0
  3 26  1  0     0  0
  4 26  1  0     0  0
  5 27  2  0     0  0
  6  7  1  0     0  0
  6 16  1  0     0  0
  7 13  2  0     0  0
  8 14  1  0     0  0
  8 15  2  0     0  0
  9 13  1  0     0  0
  9 14  1  0     0  0
 10 27  1  0     0  0
 10 29  1  0     0  0
 10 30  1  0     0  0
 11 28  1  0     0  0
 11 31  1  0     0  0
 11 32  1  0     0  0
 12 17  1  0     0  0
 12 18  2  0     0  0
 13 19  1  0     0  0
 14 20  2  0     0  0
 15 21  1  0     0  0
 15 28  1  0     0  0
 16 19  2  0     0  0
 17 22  2  0     0  0
 17 26  1  0     0  0
 18 23  1  0     0  0
 18 27  1  0     0  0
 20 24  1  0     0  0
 21 24  2  0     0  0
 22 25  1  0     0  0
 23 25  2  0     0  0
 29 31  1  0     0  0
 30 32  1  0     0  0
M  END
> <standard_type>
pIC50

> <# Confs.>
25

> <canonical_smiles>
FC1=C(C(N2CCN(CC3=NC(NC4=NNC=C4)=CC=C3)CC2)=O)C=CC=C1C(F)(F)F

> <standard_relation>
=

> <Publication_ID>
nan

> <predicted_activity_value>
6.292429823902063

> <actual_activity_value>
6.275724130399211

> <Compound>
17

> <standard_units>
nM

> hash
1549603100698601883

$$$$
17_
XXILIB    08252103493D 0   0.00000     0.00000

 32 35  0     1  0            999 V2000
   -5.6436    1.4257   -0.9157 F   0  0  0  0  0  1           0  0  0
   -7.0336    2.0122   -2.6575 F   0  0  0  0  0  1           0  0  0
   -7.6784    4.0840   -2.6390 F   0  0  0  0  0  1           0  0  0
   -6.1545    3.4344   -4.0474 F   0  0  0  0  0  1           0  0  0
   -4.2101    1.7200    2.1113 O   0  0  0  0  0  2           0  0  0
    5.0565   -4.5047    5.6100 N   0  0  0  0  0  3           0  0  0
    4.7891   -3.8564    4.4660 N   0  0  0  0  0  3           0  0  0
    2.4101   -1.0421    2.0002 N   0  0  0  0  0  3           0  0  0
    3.3203   -1.9764    4.0295 N   0  0  0  0  0  3           0  0  0
   -2.6060    1.0723    0.5476 N   0  0  1  0  0  3           0  0  0
   -0.0000    0.0000    0.0000 N   0  0  1  0  0  3           0  0  0
   -5.0754    2.6414   -0.8615 C   0  0  0  0  0  4           0  0  0
    3.9075   -2.9093    4.8250 C   0  0  0  0  0  4           0  0  0
    3.0020   -2.0773    2.6543 C   0  0  0  0  0  4           0  0  0
    2.1376   -1.1718    0.6765 C   0  0  0  0  0  4           0  0  0
    4.3880   -4.0183    6.6905 C   0  0  0  0  0  4           0  0  0
   -5.5069    3.6164   -1.7706 C   0  0  0  0  0  4           0  0  0
   -4.0760    2.9111    0.0835 C   0  0  0  0  0  4           0  0  0
    3.6279   -2.9786    6.2164 C   0  0  0  0  0  4           0  0  0
    3.3306   -3.2585    1.9861 C   0  0  0  0  0  4           0  0  0
    2.4307   -2.3262   -0.0392 C   0  0  0  0  0  4           0  0  0
   -4.9265    4.8863   -1.7220 C   0  0  0  0  0  4           0  0  0
   -3.5058    4.1891    0.1131 C   0  0  0  0  0  4           0  0  0
    3.0375   -3.3787    0.6314 C   0  0  0  0  0  4           0  0  0
   -3.9314    5.1694   -0.7861 C   0  0  0  0  0  4           0  0  0
   -6.5773    3.2915   -2.7611 C   0  0  2  0  0  4           0  0  0
   -3.6483    1.8441    1.0299 C   0  0  0  0  0  4           0  0  0
    1.4664    0.0000   -0.0000 C   0  0  0  0  0  4           0  0  0
   -2.0719   -0.0181    1.3574 C   0  0  0  0  0  4           0  0  0
   -2.0329    1.1727   -0.7970 C   0  0  0  0  0  4           0  0  0
   -0.5431    0.0000    1.3715 C   0  0  0  0  0  4           0  0  0
   -0.5046    1.1698   -0.7407 C   0  0  0  0  0  4           0  0  0
  1 12  1  0     0  0
  2 26  1  0     0  0
  3 26  1  0     0  0
  4 26  1  0     0  0
  5 27  2  0     0  0
  6  7  1  0     0  0
  6 16  1  0     0  0
  7 13  2  0     0  0
  8 14  1  0     0  0
  8 15  2  0     0  0
  9 13  1  0     0  0
  9 14  1  0     0  0
 10 27  1  0     0  0
 10 29  1  0     0  0
 10 30  1  0     0  0
 11 28  1  0     0  0
 11 31  1  0     0  0
 11 32  1  0     0  0
 12 17  1  0     0  0
 12 18  2  0     0  0
 13 19  1  0     0  0
 14 20  2  0     0  0
 15 21  1  0     0  0
 15 28  1  0     0  0
 16 19  2  0     0  0
 17 22  2  0     0  0
 17 26  1  0     0  0
 18 23  1  0     0  0
 18 27  1  0     0  0
 20 24  1  0     0  0
 21 24  2  0     0  0
 22 25  1  0     0  0
 23 25  2  0     0  0
 29 31  1  0     0  0
 30 32  1  0     0  0
M  END
> <standard_type>
pIC50

> <# Confs.>
25

> <canonical_smiles>
FC1=C(C(N2CCN(CC3=NC(NC4=NNC=C4)=CC=C3)CC2)=O)C=CC=C1C(F)(F)F

> <standard_relation>
=

> <Publication_ID>
nan

> <predicted_activity_value>
6.292429823902063

> <actual_activity_value>
6.275724130399211

> <Compound>
17

> <standard_units>
nM

> hash
1549603100698601883

$$$$
17_
XXILIB    08252103493D 0   0.00000     0.00000

 32 35  0     1  0            999 V2000
   -2.5206    4.4265    1.0560 F   0  0  0  0  0  1           0  0  0
   -2.2375    6.6012    0.3487 F   0  0  0  0  0  1           0  0  0
   -2.5453    6.9059   -1.7776 F   0  0  0  0  0  1           0  0  0
   -4.0646    7.5438   -0.3589 F   0  0  0  0  0  1           0  0  0
   -4.2101    1.7200    2.1113 O   0  0  0  0  0  2           0  0  0
    7.4019    0.8765   -5.1417 N   0  0  0  0  0  3           0  0  0
    6.2465    0.5469   -4.5442 N   0  0  0  0  0  3           0  0  0
    3.1774    0.8564   -1.5220 N   0  0  0  0  0  3           0  0  0
    4.8973    1.7722   -2.9441 N   0  0  0  0  0  3           0  0  0
   -2.6060    1.0723    0.5476 N   0  0  1  0  0  3           0  0  0
   -0.0000    0.0000    0.0000 N   0  0  1  0  0  3           0  0  0
   -3.4757    4.1761    0.1457 C   0  0  0  0  0  4           0  0  0
    5.9694    1.6029   -3.7625 C   0  0  0  0  0  4           0  0  0
    3.8208    0.8815   -2.7200 C   0  0  0  0  0  4           0  0  0
    2.1376    0.0000   -1.3531 C   0  0  0  0  0  4           0  0  0
    7.8821    2.0974   -4.7814 C   0  0  0  0  0  4           0  0  0
   -3.8488    5.2081   -0.7254 C   0  0  0  0  0  4           0  0  0
   -4.0760    2.9111    0.0835 C   0  0  0  0  0  4           0  0  0
    6.9752    2.5995   -3.8820 C   0  0  0  0  0  4           0  0  0
    3.4267    0.0463   -3.7673 C   0  0  0  0  0  4           0  0  0
    1.7070   -0.8624   -2.3539 C   0  0  0  0  0  4           0  0  0
   -4.8385    4.9592   -1.6797 C   0  0  0  0  0  4           0  0  0
   -5.0676    2.6838   -0.8781 C   0  0  0  0  0  4           0  0  0
    2.3643   -0.8313   -3.5757 C   0  0  0  0  0  4           0  0  0
   -5.4441    3.7046   -1.7538 C   0  0  0  0  0  4           0  0  0
   -3.1831    6.5423   -0.6302 C   0  0  2  0  0  4           0  0  0
   -3.6483    1.8441    1.0299 C   0  0  0  0  0  4           0  0  0
    1.4664    0.0000    0.0000 C   0  0  0  0  0  4           0  0  0
   -2.0719   -0.0181    1.3574 C   0  0  0  0  0  4           0  0  0
   -2.0329    1.1727   -0.7970 C   0  0  0  0  0  4           0  0  0
   -0.5431    0.0000    1.3715 C   0  0  0  0  0  4           0  0  0
   -0.5046    1.1698   -0.7407 C   0  0  0  0  0  4           0  0  0
  1 12  1  0     0  0
  2 26  1  0     0  0
  3 26  1  0     0  0
  4 26  1  0     0  0
  5 27  2  0     0  0
  6  7  1  0     0  0
  6 16  1  0     0  0
  7 13  2  0     0  0
  8 14  1  0     0  0
  8 15  2  0     0  0
  9 13  1  0     0  0
  9 14  1  0     0  0
 10 27  1  0     0  0
 10 29  1  0     0  0
 10 30  1  0     0  0
 11 28  1  0     0  0
 11 31  1  0     0  0
 11 32  1  0     0  0
 12 17  1  0     0  0
 12 18  2  0     0  0
 13 19  1  0     0  0
 14 20  2  0     0  0
 15 21  1  0     0  0
 15 28  1  0     0  0
 16 19  2  0     0  0
 17 22  2  0     0  0
 17 26  1  0     0  0
 18 23  1  0     0  0
 18 27  1  0     0  0
 20 24  1  0     0  0
 21 24  2  0     0  0
 22 25  1  0     0  0
 23 25  2  0     0  0
 29 31  1  0     0  0
 30 32  1  0     0  0
M  END
> <standard_type>
pIC50

> <# Confs.>
25

> <canonical_smiles>
FC1=C(C(N2CCN(CC3=NC(NC4=NNC=C4)=CC=C3)CC2)=O)C=CC=C1C(F)(F)F

> <standard_relation>
=

> <Publication_ID>
nan

> <predicted_activity_value>
6.292429823902063

> <actual_activity_value>
6.275724130399211

> <Compound>
17

> <standard_units>
nM

> hash
1549603100698601883

$$$$
17_
XXILIB    08252103493D 0   0.00000     0.00000

 32 35  0     1  0            999 V2000
   -5.6436    1.4257   -0.9157 F   0  0  0  0  0  1           0  0  0
   -7.0336    2.0122   -2.6575 F   0  0  0  0  0  1           0  0  0
   -7.6784    4.0840   -2.6390 F   0  0  0  0  0  1           0  0  0
   -6.1545    3.4344   -4.0474 F   0  0  0  0  0  1           0  0  0
   -4.2101    1.7200    2.1113 O   0  0  0  0  0  2           0  0  0
    5.4705   -3.7663    5.6761 N   0  0  0  0  0  3           0  0  0
    4.7092   -3.4644    4.6131 N   0  0  0  0  0  3           0  0  0
    3.1774   -0.8899    1.5027 N   0  0  0  0  0  3           0  0  0
    4.9035   -1.6644    2.9993 N   0  0  0  0  0  3           0  0  0
   -2.6060    1.0723    0.5476 N   0  0  1  0  0  3           0  0  0
   -0.0000    0.0000    0.0000 N   0  0  1  0  0  3           0  0  0
   -5.0754    2.6414   -0.8615 C   0  0  0  0  0  4           0  0  0
    5.2893   -2.3696    4.0956 C   0  0  0  0  0  4           0  0  0
    3.8038   -1.9126    2.1441 C   0  0  0  0  0  4           0  0  0
    2.1376   -1.1718    0.6765 C   0  0  0  0  0  4           0  0  0
    6.5156   -2.9164    5.8670 C   0  0  0  0  0  4           0  0  0
   -5.5069    3.6164   -1.7706 C   0  0  0  0  0  4           0  0  0
   -4.0760    2.9111    0.0835 C   0  0  0  0  0  4           0  0  0
    6.4284   -1.9919    4.8566 C   0  0  0  0  0  4           0  0  0
    3.3947   -3.2353    1.9626 C   0  0  0  0  0  4           0  0  0
    1.6783   -2.4661    0.4648 C   0  0  0  0  0  4           0  0  0
   -4.9265    4.8863   -1.7220 C   0  0  0  0  0  4           0  0  0
   -3.5058    4.1891    0.1131 C   0  0  0  0  0  4           0  0  0
    2.3224   -3.5069    1.1188 C   0  0  0  0  0  4           0  0  0
   -3.9314    5.1694   -0.7861 C   0  0  0  0  0  4           0  0  0
   -6.5773    3.2915   -2.7611 C   0  0  2  0  0  4           0  0  0
   -3.6483    1.8441    1.0299 C   0  0  0  0  0  4           0  0  0
    1.4664    0.0000   -0.0000 C   0  0  0  0  0  4           0  0  0
   -2.0719   -0.0181    1.3574 C   0  0  0  0  0  4           0  0  0
   -2.0329    1.1727   -0.7970 C   0  0  0  0  0  4           0  0  0
   -0.5431    0.0000    1.3715 C   0  0  0  0  0  4           0  0  0
   -0.5046    1.1698   -0.7407 C   0  0  0  0  0  4           0  0  0
  1 12  1  0     0  0
  2 26  1  0     0  0
  3 26  1  0     0  0
  4 26  1  0     0  0
  5 27  2  0     0  0
  6  7  1  0     0  0
  6 16  1  0     0  0
  7 13  2  0     0  0
  8 14  1  0     0  0
  8 15  2  0     0  0
  9 13  1  0     0  0
  9 14  1  0     0  0
 10 27  1  0     0  0
 10 29  1  0     0  0
 10 30  1  0     0  0
 11 28  1  0     0  0
 11 31  1  0     0  0
 11 32  1  0     0  0
 12 17  1  0     0  0
 12 18  2  0     0  0
 13 19  1  0     0  0
 14 20  2  0     0  0
 15 21  1  0     0  0
 15 28  1  0     0  0
 16 19  2  0     0  0
 17 22  2  0     0  0
 17 26  1  0     0  0
 18 23  1  0     0  0
 18 27  1  0     0  0
 20 24  1  0     0  0
 21 24  2  0     0  0
 22 25  1  0     0  0
 23 25  2  0     0  0
 29 31  1  0     0  0
 30 32  1  0     0  0
M  END
> <standard_type>
pIC50

> <# Confs.>
25

> <canonical_smiles>
FC1=C(C(N2CCN(CC3=NC(NC4=NNC=C4)=CC=C3)CC2)=O)C=CC=C1C(F)(F)F

> <standard_relation>
=

> <Publication_ID>
nan

> <predicted_activity_value>
6.292429823902063

> <actual_activity_value>
6.275724130399211

> <Compound>
17

> <standard_units>
nM

> hash
1549603100698601883

$$$$
17_
XXILIB    08252103493D 0   0.00000     0.00000

 32 35  0     1  0            999 V2000
   -5.6436    1.4257   -0.9157 F   0  0  0  0  0  1           0  0  0
   -7.0336    2.0122   -2.6575 F   0  0  0  0  0  1           0  0  0
   -7.6784    4.0840   -2.6390 F   0  0  0  0  0  1           0  0  0
   -6.1545    3.4344   -4.0474 F   0  0  0  0  0  1           0  0  0
   -4.2101    1.7200    2.1113 O   0  0  0  0  0  2           0  0  0
    7.4019    0.8765   -5.1417 N   0  0  0  0  0  3           0  0  0
    6.2465    0.5469   -4.5442 N   0  0  0  0  0  3           0  0  0
    3.1774    0.8564   -1.5220 N   0  0  0  0  0  3           0  0  0
    4.8973    1.7722   -2.9441 N   0  0  0  0  0  3           0  0  0
   -2.6060    1.0723    0.5476 N   0  0  1  0  0  3           0  0  0
   -0.0000    0.0000    0.0000 N   0  0  1  0  0  3           0  0  0
   -5.0754    2.6414   -0.8615 C   0  0  0  0  0  4           0  0  0
    5.9694    1.6029   -3.7625 C   0  0  0  0  0  4           0  0  0
    3.8208    0.8815   -2.7200 C   0  0  0  0  0  4           0  0  0
    2.1376    0.0000   -1.3531 C   0  0  0  0  0  4           0  0  0
    7.8821    2.0974   -4.7814 C   0  0  0  0  0  4           0  0  0
   -5.5069    3.6164   -1.7706 C   0  0  0  0  0  4           0  0  0
   -4.0760    2.9111    0.0835 C   0  0  0  0  0  4           0  0  0
    6.9752    2.5995   -3.8820 C   0  0  0  0  0  4           0  0  0
    3.4267    0.0463   -3.7673 C   0  0  0  0  0  4           0  0  0
    1.7070   -0.8624   -2.3539 C   0  0  0  0  0  4           0  0  0
   -4.9265    4.8863   -1.7220 C   0  0  0  0  0  4           0  0  0
   -3.5058    4.1891    0.1131 C   0  0  0  0  0  4           0  0  0
    2.3643   -0.8313   -3.5757 C   0  0  0  0  0  4           0  0  0
   -3.9314    5.1694   -0.7861 C   0  0  0  0  0  4           0  0  0
   -6.5773    3.2915   -2.7611 C   0  0  2  0  0  4           0  0  0
   -3.6483    1.8441    1.0299 C   0  0  0  0  0  4           0  0  0
    1.4664    0.0000    0.0000 C   0  0  0  0  0  4           0  0  0
   -2.0719   -0.0181    1.3574 C   0  0  0  0  0  4           0  0  0
   -2.0329    1.1727   -0.7970 C   0  0  0  0  0  4           0  0  0
   -0.5431    0.0000    1.3715 C   0  0  0  0  0  4           0  0  0
   -0.5046    1.1698   -0.7407 C   0  0  0  0  0  4           0  0  0
  1 12  1  0     0  0
  2 26  1  0     0  0
  3 26  1  0     0  0
  4 26  1  0     0  0
  5 27  2  0     0  0
  6  7  1  0     0  0
  6 16  1  0     0  0
  7 13  2  0     0  0
  8 14  1  0     0  0
  8 15  2  0     0  0
  9 13  1  0     0  0
  9 14  1  0     0  0
 10 27  1  0     0  0
 10 29  1  0     0  0
 10 30  1  0     0  0
 11 28  1  0     0  0
 11 31  1  0     0  0
 11 32  1  0     0  0
 12 17  1  0     0  0
 12 18  2  0     0  0
 13 19  1  0     0  0
 14 20  2  0     0  0
 15 21  1  0     0  0
 15 28  1  0     0  0
 16 19  2  0     0  0
 17 22  2  0     0  0
 17 26  1  0     0  0
 18 23  1  0     0  0
 18 27  1  0     0  0
 20 24  1  0     0  0
 21 24  2  0     0  0
 22 25  1  0     0  0
 23 25  2  0     0  0
 29 31  1  0     0  0
 30 32  1  0     0  0
M  END
> <standard_type>
pIC50

> <# Confs.>
25

> <canonical_smiles>
FC1=C(C(N2CCN(CC3=NC(NC4=NNC=C4)=CC=C3)CC2)=O)C=CC=C1C(F)(F)F

> <standard_relation>
=

> <Publication_ID>
nan

> <predicted_activity_value>
6.292429823902063

> <actual_activity_value>
6.275724130399211

> <Compound>
17

> <standard_units>
nM

> hash
1549603100698601883

$$$$
17_
XXILIB    08252103493D 0   0.00000     0.00000

 32 35  0     1  0            999 V2000
   -5.6436    1.4257   -0.9157 F   0  0  0  0  0  1           0  0  0
   -7.0336    2.0122   -2.6575 F   0  0  0  0  0  1           0  0  0
   -7.6784    4.0840   -2.6390 F   0  0  0  0  0  1           0  0  0
   -6.1545    3.4344   -4.0474 F   0  0  0  0  0  1           0  0  0
   -4.2101    1.7200    2.1113 O   0  0  0  0  0  2           0  0  0
    3.3196    7.5886    1.1896 N   0  0  0  0  0  3           0  0  0
    3.1323    6.2666    1.3239 N   0  0  0  0  0  3           0  0  0
    2.4101    2.2533   -0.0976 N   0  0  0  0  0  3           0  0  0
    3.3203    4.4779   -0.3031 N   0  0  0  0  0  3           0  0  0
   -2.6060    1.0723    0.5476 N   0  0  1  0  0  3           0  0  0
   -0.0000    0.0000    0.0000 N   0  0  1  0  0  3           0  0  0
   -5.0754    2.6414   -0.8615 C   0  0  0  0  0  4           0  0  0
    3.3725    5.7759    0.0973 C   0  0  0  0  0  4           0  0  0
    3.0020    3.3373    0.4718 C   0  0  0  0  0  4           0  0  0
    2.1376    1.1718    0.6765 C   0  0  0  0  0  4           0  0  0
    3.6704    7.9724   -0.0676 C   0  0  0  0  0  4           0  0  0
   -5.5069    3.6164   -1.7706 C   0  0  0  0  0  4           0  0  0
   -4.0760    2.9111    0.0835 C   0  0  0  0  0  4           0  0  0
    3.7129    6.8173   -0.8075 C   0  0  0  0  0  4           0  0  0
    3.3306    3.3493    1.8289 C   0  0  0  0  0  4           0  0  0
    2.4307    1.1291    2.0341 C   0  0  0  0  0  4           0  0  0
   -4.9265    4.8863   -1.7220 C   0  0  0  0  0  4           0  0  0
   -3.5058    4.1891    0.1131 C   0  0  0  0  0  4           0  0  0
    3.0375    2.2361    2.6104 C   0  0  0  0  0  4           0  0  0
   -3.9314    5.1694   -0.7861 C   0  0  0  0  0  4           0  0  0
   -6.5773    3.2915   -2.7611 C   0  0  2  0  0  4           0  0  0
   -3.6483    1.8441    1.0299 C   0  0  0  0  0  4           0  0  0
    1.4664   -0.0000   -0.0000 C   0  0  0  0  0  4           0  0  0
   -2.0719   -0.0181    1.3574 C   0  0  0  0  0  4           0  0  0
   -2.0329    1.1727   -0.7970 C   0  0  0  0  0  4           0  0  0
   -0.5431    0.0000    1.3715 C   0  0  0  0  0  4           0  0  0
   -0.5046    1.1698   -0.7407 C   0  0  0  0  0  4           0  0  0
  1 12  1  0     0  0
  2 26  1  0     0  0
  3 26  1  0     0  0
  4 26  1  0     0  0
  5 27  2  0     0  0
  6  7  1  0     0  0
  6 16  1  0     0  0
  7 13  2  0     0  0
  8 14  1  0     0  0
  8 15  2  0     0  0
  9 13  1  0     0  0
  9 14  1  0     0  0
 10 27  1  0     0  0
 10 29  1  0     0  0
 10 30  1  0     0  0
 11 28  1  0     0  0
 11 31  1  0     0  0
 11 32  1  0     0  0
 12 17  1  0     0  0
 12 18  2  0     0  0
 13 19  1  0     0  0
 14 20  2  0     0  0
 15 21  1  0     0  0
 15 28  1  0     0  0
 16 19  2  0     0  0
 17 22  2  0     0  0
 17 26  1  0     0  0
 18 23  1  0     0  0
 18 27  1  0     0  0
 20 24  1  0     0  0
 21 24  2  0     0  0
 22 25  1  0     0  0
 23 25  2  0     0  0
 29 31  1  0     0  0
 30 32  1  0     0  0
M  END
> <standard_type>
pIC50

> <# Confs.>
25

> <canonical_smiles>
FC1=C(C(N2CCN(CC3=NC(NC4=NNC=C4)=CC=C3)CC2)=O)C=CC=C1C(F)(F)F

> <standard_relation>
=

> <Publication_ID>
nan

> <predicted_activity_value>
6.292429823902063

> <actual_activity_value>
6.275724130399211

> <Compound>
17

> <standard_units>
nM

> hash
1549603100698601883

$$$$
17_
XXILIB    08252103493D 0   0.00000     0.00000

 32 35  0     1  0            999 V2000
   -2.5206    4.4265    1.0560 F   0  0  0  0  0  1           0  0  0
   -2.2375    6.6012    0.3487 F   0  0  0  0  0  1           0  0  0
   -2.5453    6.9059   -1.7776 F   0  0  0  0  0  1           0  0  0
   -4.0646    7.5438   -0.3589 F   0  0  0  0  0  1           0  0  0
   -4.2101    1.7200    2.1113 O   0  0  0  0  0  2           0  0  0
    5.0565    7.1107    1.0962 N   0  0  0  0  0  3           0  0  0
    4.7891    5.7958    1.1067 N   0  0  0  0  0  3           0  0  0
    2.4101    2.2533   -0.0976 N   0  0  0  0  0  3           0  0  0
    3.3203    4.4779   -0.3031 N   0  0  0  0  0  3           0  0  0
   -2.6060    1.0723    0.5476 N   0  0  1  0  0  3           0  0  0
   -0.0000    0.0000    0.0000 N   0  0  1  0  0  3           0  0  0
   -3.4757    4.1761    0.1457 C   0  0  0  0  0  4           0  0  0
    3.9075    5.6332    0.1071 C   0  0  0  0  0  4           0  0  0
    3.0020    3.3373    0.4718 C   0  0  0  0  0  4           0  0  0
    2.1376    1.1718    0.6765 C   0  0  0  0  0  4           0  0  0
    4.3880    7.8033    0.1347 C   0  0  0  0  0  4           0  0  0
   -3.8488    5.2081   -0.7254 C   0  0  0  0  0  4           0  0  0
   -4.0760    2.9111    0.0835 C   0  0  0  0  0  4           0  0  0
    3.6279    6.8729   -0.5286 C   0  0  0  0  0  4           0  0  0
    3.3306    3.3493    1.8289 C   0  0  0  0  0  4           0  0  0
    2.4307    1.1291    2.0341 C   0  0  0  0  0  4           0  0  0
   -4.8385    4.9592   -1.6797 C   0  0  0  0  0  4           0  0  0
   -5.0676    2.6838   -0.8781 C   0  0  0  0  0  4           0  0  0
    3.0375    2.2361    2.6104 C   0  0  0  0  0  4           0  0  0
   -5.4441    3.7046   -1.7538 C   0  0  0  0  0  4           0  0  0
   -3.1831    6.5423   -0.6302 C   0  0  2  0  0  4           0  0  0
   -3.6483    1.8441    1.0299 C   0  0  0  0  0  4           0  0  0
    1.4664   -0.0000   -0.0000 C   0  0  0  0  0  4           0  0  0
   -2.0719   -0.0181    1.3574 C   0  0  0  0  0  4           0  0  0
   -2.0329    1.1727   -0.7970 C   0  0  0  0  0  4           0  0  0
   -0.5431    0.0000    1.3715 C   0  0  0  0  0  4           0  0  0
   -0.5046    1.1698   -0.7407 C   0  0  0  0  0  4           0  0  0
  1 12  1  0     0  0
  2 26  1  0     0  0
  3 26  1  0     0  0
  4 26  1  0     0  0
  5 27  2  0     0  0
  6  7  1  0     0  0
  6 16  1  0     0  0
  7 13  2  0     0  0
  8 14  1  0     0  0
  8 15  2  0     0  0
  9 13  1  0     0  0
  9 14  1  0     0  0
 10 27  1  0     0  0
 10 29  1  0     0  0
 10 30  1  0     0  0
 11 28  1  0     0  0
 11 31  1  0     0  0
 11 32  1  0     0  0
 12 17  1  0     0  0
 12 18  2  0     0  0
 13 19  1  0     0  0
 14 20  2  0     0  0
 15 21  1  0     0  0
 15 28  1  0     0  0
 16 19  2  0     0  0
 17 22  2  0     0  0
 17 26  1  0     0  0
 18 23  1  0     0  0
 18 27  1  0     0  0
 20 24  1  0     0  0
 21 24  2  0     0  0
 22 25  1  0     0  0
 23 25  2  0     0  0
 29 31  1  0     0  0
 30 32  1  0     0  0
M  END
> <standard_type>
pIC50

> <# Confs.>
25

> <canonical_smiles>
FC1=C(C(N2CCN(CC3=NC(NC4=NNC=C4)=CC=C3)CC2)=O)C=CC=C1C(F)(F)F

> <standard_relation>
=

> <Publication_ID>
nan

> <predicted_activity_value>
6.292429823902063

> <actual_activity_value>
6.275724130399211

> <Compound>
17

> <standard_units>
nM

> hash
1549603100698601883

$$$$
17_
XXILIB    08252103493D 0   0.00000     0.00000

 32 35  0     1  0            999 V2000
   -4.0327    4.6075    0.6331 F   0  0  0  0  0  1           0  0  0
   -4.8934    6.4812   -0.3955 F   0  0  0  0  0  1           0  0  0
   -5.2229    6.2679   -2.5296 F   0  0  0  0  0  1           0  0  0
   -6.9116    6.2191   -1.1607 F   0  0  0  0  0  1           0  0  0
   -3.8854    2.1006    2.2039 O   0  0  0  0  0  2           0  0  0
    4.6334    2.6060   -6.9161 N   0  0  0  0  0  3           0  0  0
    3.8928    1.9395   -6.0173 N   0  0  0  0  0  3           0  0  0
    2.4101    1.2112   -1.9026 N   0  0  0  0  0  3           0  0  0
    3.3115    2.5014   -3.7307 N   0  0  0  0  0  3           0  0  0
   -2.6060    1.0723    0.5476 N   0  0  1  0  0  3           0  0  0
   -0.0000    0.0000    0.0000 N   0  0  1  0  0  3           0  0  0
   -4.6775    3.7668   -0.1922 C   0  0  0  0  0  4           0  0  0
    3.9161    2.7239   -4.9278 C   0  0  0  0  0  4           0  0  0
    3.0262    1.2601   -3.1142 C   0  0  0  0  0  4           0  0  0
    2.1376    0.0000   -1.3531 C   0  0  0  0  0  4           0  0  0
    5.1326    3.7850   -6.4558 C   0  0  0  0  0  4           0  0  0
   -5.4955    4.3138   -1.1896 C   0  0  0  0  0  4           0  0  0
   -4.5279    2.3811   -0.0449 C   0  0  0  0  0  4           0  0  0
    4.6870    3.8943   -5.1624 C   0  0  0  0  0  4           0  0  0
    3.3758    0.0908   -3.7926 C   0  0  0  0  0  4           0  0  0
    2.4712   -1.1971   -1.9748 C   0  0  0  0  0  4           0  0  0
   -6.1686    3.4501   -2.0573 C   0  0  0  0  0  4           0  0  0
   -5.2135    1.5335   -0.9229 C   0  0  0  0  0  4           0  0  0
    3.0967   -1.1426   -3.2123 C   0  0  0  0  0  4           0  0  0
   -6.0285    2.0685   -1.9230 C   0  0  0  0  0  4           0  0  0
   -5.6268    5.7967   -1.3171 C   0  0  2  0  0  4           0  0  0
   -3.6483    1.8441    1.0299 C   0  0  0  0  0  4           0  0  0
    1.4664    0.0000   -0.0000 C   0  0  0  0  0  4           0  0  0
   -2.0719   -0.0181    1.3574 C   0  0  0  0  0  4           0  0  0
   -2.0329    1.1727   -0.7970 C   0  0  0  0  0  4           0  0  0
   -0.5431    0.0000    1.3715 C   0  0  0  0  0  4           0  0  0
   -0.5046    1.1698   -0.7407 C   0  0  0  0  0  4           0  0  0
  1 12  1  0     0  0
  2 26  1  0     0  0
  3 26  1  0     0  0
  4 26  1  0     0  0
  5 27  2  0     0  0
  6  7  1  0     0  0
  6 16  1  0     0  0
  7 13  2  0     0  0
  8 14  1  0     0  0
  8 15  2  0     0  0
  9 13  1  0     0  0
  9 14  1  0     0  0
 10 27  1  0     0  0
 10 29  1  0     0  0
 10 30  1  0     0  0
 11 28  1  0     0  0
 11 31  1  0     0  0
 11 32  1  0     0  0
 12 17  1  0     0  0
 12 18  2  0     0  0
 13 19  1  0     0  0
 14 20  2  0     0  0
 15 21  1  0     0  0
 15 28  1  0     0  0
 16 19  2  0     0  0
 17 22  2  0     0  0
 17 26  1  0     0  0
 18 23  1  0     0  0
 18 27  1  0     0  0
 20 24  1  0     0  0
 21 24  2  0     0  0
 22 25  1  0     0  0
 23 25  2  0     0  0
 29 31  1  0     0  0
 30 32  1  0     0  0
M  END
> <standard_type>
pIC50

> <# Confs.>
25

> <canonical_smiles>
FC1=C(C(N2CCN(CC3=NC(NC4=NNC=C4)=CC=C3)CC2)=O)C=CC=C1C(F)(F)F

> <standard_relation>
=

> <Publication_ID>
nan

> <predicted_activity_value>
6.292429823902063

> <actual_activity_value>
6.275724130399211

> <Compound>
17

> <standard_units>
nM

> hash
1549603100698601883

$$$$
17_
XXILIB    08252103493D 0   0.00000     0.00000

 32 35  0     1  0            999 V2000
   -0.3483    5.7667    1.4211 F   0  0  0  0  0  1           0  0  0
    0.0461    7.8209    0.4543 F   0  0  0  0  0  1           0  0  0
   -0.6537    8.0046   -1.5914 F   0  0  0  0  0  1           0  0  0
   -1.7586    8.9541    0.0228 F   0  0  0  0  0  1           0  0  0
   -2.1015    3.4107    3.0548 O   0  0  0  0  0  2           0  0  0
    4.6334    2.6060   -6.9161 N   0  0  0  0  0  3           0  0  0
    3.8928    1.9395   -6.0173 N   0  0  0  0  0  3           0  0  0
    2.4101    1.2112   -1.9026 N   0  0  0  0  0  3           0  0  0
    3.3115    2.5014   -3.7307 N   0  0  0  0  0  3           0  0  0
   -0.9454    2.4289    1.2837 N   0  0  1  0  0  3           0  0  0
   -0.0000    0.0000    0.0000 N   0  0  1  0  0  3           0  0  0
   -1.4938    5.5847    0.7440 C   0  0  0  0  0  4           0  0  0
    3.9161    2.7239   -4.9278 C   0  0  0  0  0  4           0  0  0
    3.0262    1.2601   -3.1142 C   0  0  0  0  0  4           0  0  0
    2.1376    0.0000   -1.3531 C   0  0  0  0  0  4           0  0  0
    5.1326    3.7850   -6.4558 C   0  0  0  0  0  4           0  0  0
   -1.9096    6.5903   -0.1386 C   0  0  0  0  0  4           0  0  0
   -2.2439    4.4152    0.9289 C   0  0  0  0  0  4           0  0  0
    4.6870    3.8943   -5.1624 C   0  0  0  0  0  4           0  0  0
    3.3758    0.0908   -3.7926 C   0  0  0  0  0  4           0  0  0
    2.4712   -1.1971   -1.9748 C   0  0  0  0  0  4           0  0  0
   -3.0975    6.4113   -0.8520 C   0  0  0  0  0  4           0  0  0
   -3.4324    4.2573    0.2065 C   0  0  0  0  0  4           0  0  0
    3.0967   -1.1426   -3.2123 C   0  0  0  0  0  4           0  0  0
   -3.8539    5.2519   -0.6787 C   0  0  0  0  0  4           0  0  0
   -1.0808    7.8214   -0.3111 C   0  0  2  0  0  4           0  0  0
   -1.7638    3.3732    1.8779 C   0  0  0  0  0  4           0  0  0
    1.4664    0.0000   -0.0000 C   0  0  0  0  0  4           0  0  0
   -0.3954    1.3397    2.0870 C   0  0  0  0  0  4           0  0  0
   -0.4695    2.4785   -0.1029 C   0  0  0  0  0  4           0  0  0
   -0.5476    0.0000    1.3667 C   0  0  0  0  0  4           0  0  0
   -0.5864    1.1072   -0.7764 C   0  0  0  0  0  4           0  0  0
  1 12  1  0     0  0
  2 26  1  0     0  0
  3 26  1  0     0  0
  4 26  1  0     0  0
  5 27  2  0     0  0
  6  7  1  0     0  0
  6 16  1  0     0  0
  7 13  2  0     0  0
  8 14  1  0     0  0
  8 15  2  0     0  0
  9 13  1  0     0  0
  9 14  1  0     0  0
 10 27  1  0     0  0
 10 29  1  0     0  0
 10 30  1  0     0  0
 11 28  1  0     0  0
 11 31  1  0     0  0
 11 32  1  0     0  0
 12 17  1  0     0  0
 12 18  2  0     0  0
 13 19  1  0     0  0
 14 20  2  0     0  0
 15 21  1  0     0  0
 15 28  1  0     0  0
 16 19  2  0     0  0
 17 22  2  0     0  0
 17 26  1  0     0  0
 18 23  1  0     0  0
 18 27  1  0     0  0
 20 24  1  0     0  0
 21 24  2  0     0  0
 22 25  1  0     0  0
 23 25  2  0     0  0
 29 31  1  0     0  0
 30 32  1  0     0  0
M  END
> <standard_type>
pIC50

> <# Confs.>
25

> <canonical_smiles>
FC1=C(C(N2CCN(CC3=NC(NC4=NNC=C4)=CC=C3)CC2)=O)C=CC=C1C(F)(F)F

> <standard_relation>
=

> <Publication_ID>
nan

> <predicted_activity_value>
6.292429823902063

> <actual_activity_value>
6.275724130399211

> <Compound>
17

> <standard_units>
nM

> hash
1549603100698601883

$$$$
17_
XXILIB    08252103493D 0   0.00000     0.00000

 32 35  0     1  0            999 V2000
   -4.0327    4.6075    0.6331 F   0  0  0  0  0  1           0  0  0
   -4.8934    6.4812   -0.3955 F   0  0  0  0  0  1           0  0  0
   -5.2229    6.2679   -2.5296 F   0  0  0  0  0  1           0  0  0
   -6.9116    6.2191   -1.1607 F   0  0  0  0  0  1           0  0  0
   -3.8854    2.1006    2.2039 O   0  0  0  0  0  2           0  0  0
    5.0565   -4.5047    5.6100 N   0  0  0  0  0  3           0  0  0
    4.7891   -3.8564    4.4660 N   0  0  0  0  0  3           0  0  0
    2.4101   -1.0421    2.0002 N   0  0  0  0  0  3           0  0  0
    3.3203   -1.9764    4.0295 N   0  0  0  0  0  3           0  0  0
   -2.6060    1.0723    0.5476 N   0  0  1  0  0  3           0  0  0
   -0.0000    0.0000    0.0000 N   0  0  1  0  0  3           0  0  0
   -4.6775    3.7668   -0.1922 C   0  0  0  0  0  4           0  0  0
    3.9075   -2.9093    4.8250 C   0  0  0  0  0  4           0  0  0
    3.0020   -2.0773    2.6543 C   0  0  0  0  0  4           0  0  0
    2.1376   -1.1718    0.6765 C   0  0  0  0  0  4           0  0  0
    4.3880   -4.0183    6.6905 C   0  0  0  0  0  4           0  0  0
   -5.4955    4.3138   -1.1896 C   0  0  0  0  0  4           0  0  0
   -4.5279    2.3811   -0.0449 C   0  0  0  0  0  4           0  0  0
    3.6279   -2.9786    6.2164 C   0  0  0  0  0  4           0  0  0
    3.3306   -3.2585    1.9861 C   0  0  0  0  0  4           0  0  0
    2.4307   -2.3262   -0.0392 C   0  0  0  0  0  4           0  0  0
   -6.1686    3.4501   -2.0573 C   0  0  0  0  0  4           0  0  0
   -5.2135    1.5335   -0.9229 C   0  0  0  0  0  4           0  0  0
    3.0375   -3.3787    0.6314 C   0  0  0  0  0  4           0  0  0
   -6.0285    2.0685   -1.9230 C   0  0  0  0  0  4           0  0  0
   -5.6268    5.7967   -1.3171 C   0  0  2  0  0  4           0  0  0
   -3.6483    1.8441    1.0299 C   0  0  0  0  0  4           0  0  0
    1.4664    0.0000   -0.0000 C   0  0  0  0  0  4           0  0  0
   -2.0719   -0.0181    1.3574 C   0  0  0  0  0  4           0  0  0
   -2.0329    1.1727   -0.7970 C   0  0  0  0  0  4           0  0  0
   -0.5431    0.0000    1.3715 C   0  0  0  0  0  4           0  0  0
   -0.5046    1.1698   -0.7407 C   0  0  0  0  0  4           0  0  0
  1 12  1  0     0  0
  2 26  1  0     0  0
  3 26  1  0     0  0
  4 26  1  0     0  0
  5 27  2  0     0  0
  6  7  1  0     0  0
  6 16  1  0     0  0
  7 13  2  0     0  0
  8 14  1  0     0  0
  8 15  2  0     0  0
  9 13  1  0     0  0
  9 14  1  0     0  0
 10 27  1  0     0  0
 10 29  1  0     0  0
 10 30  1  0     0  0
 11 28  1  0     0  0
 11 31  1  0     0  0
 11 32  1  0     0  0
 12 17  1  0     0  0
 12 18  2  0     0  0
 13 19  1  0     0  0
 14 20  2  0     0  0
 15 21  1  0     0  0
 15 28  1  0     0  0
 16 19  2  0     0  0
 17 22  2  0     0  0
 17 26  1  0     0  0
 18 23  1  0     0  0
 18 27  1  0     0  0
 20 24  1  0     0  0
 21 24  2  0     0  0
 22 25  1  0     0  0
 23 25  2  0     0  0
 29 31  1  0     0  0
 30 32  1  0     0  0
M  END
> <standard_type>
pIC50

> <# Confs.>
25

> <canonical_smiles>
FC1=C(C(N2CCN(CC3=NC(NC4=NNC=C4)=CC=C3)CC2)=O)C=CC=C1C(F)(F)F

> <standard_relation>
=

> <Publication_ID>
nan

> <predicted_activity_value>
6.292429823902063

> <actual_activity_value>
6.275724130399211

> <Compound>
17

> <standard_units>
nM

> hash
1549603100698601883

$$$$
17_
XXILIB    08252103493D 0   0.00000     0.00000

 32 35  0     1  0            999 V2000
   -0.0179   -5.7237    1.3739 F   0  0  0  0  0  1           0  0  0
    0.5417   -7.7356    0.3998 F   0  0  0  0  0  1           0  0  0
   -1.1471   -9.0235   -0.0450 F   0  0  0  0  0  1           0  0  0
   -0.1515   -7.9464   -1.6502 F   0  0  0  0  0  1           0  0  0
   -1.9636   -3.5472    3.0415 O   0  0  0  0  0  2           0  0  0
    3.3196   -2.7641   -7.1667 N   0  0  0  0  0  3           0  0  0
    3.1323   -1.9868   -6.0890 N   0  0  0  0  0  3           0  0  0
    2.4101   -1.2112   -1.9026 N   0  0  0  0  0  3           0  0  0
    3.3203   -2.5014   -3.7264 N   0  0  0  0  0  3           0  0  0
   -0.9074   -2.4539    1.2732 N   0  0  1  0  0  3           0  0  0
    0.0000   -0.0000    0.0000 N   0  0  1  0  0  3           0  0  0
   -1.1814   -5.6400    0.7084 C   0  0  0  0  0  4           0  0  0
    3.3725   -2.8037   -5.0507 C   0  0  0  0  0  4           0  0  0
    3.0020   -1.2601   -3.1261 C   0  0  0  0  0  4           0  0  0
    2.1376    0.0000   -1.3531 C   0  0  0  0  0  4           0  0  0
    3.6704   -4.0448   -6.8705 C   0  0  0  0  0  4           0  0  0
   -1.5121   -6.6705   -0.1815 C   0  0  0  0  0  4           0  0  0
   -2.0303   -4.5427    0.9077 C   0  0  0  0  0  4           0  0  0
    3.7129   -4.1080   -5.5003 C   0  0  0  0  0  4           0  0  0
    3.3306   -0.0908   -3.8150 C   0  0  0  0  0  4           0  0  0
    2.4307    1.1971   -1.9949 C   0  0  0  0  0  4           0  0  0
   -2.7216   -6.5973   -0.8771 C   0  0  0  0  0  4           0  0  0
   -3.2359   -4.4876    0.1986 C   0  0  0  0  0  4           0  0  0
    3.0375    1.1426   -3.2417 C   0  0  0  0  0  4           0  0  0
   -3.5769   -5.5114   -0.6880 C   0  0  0  0  0  4           0  0  0
   -0.5824   -7.8257   -0.3643 C   0  0  2  0  0  4           0  0  0
   -1.6378   -3.4703    1.8632 C   0  0  0  0  0  4           0  0  0
    1.4664   -0.0000    0.0000 C   0  0  0  0  0  4           0  0  0
   -0.4507   -1.3309    2.0892 C   0  0  0  0  0  4           0  0  0
   -0.3928   -2.4834   -0.1005 C   0  0  0  0  0  4           0  0  0
   -0.5918    0.0000    1.3486 C   0  0  0  0  0  4           0  0  0
   -0.5470   -1.1215   -0.7806 C   0  0  0  0  0  4           0  0  0
  1 12  1  0     0  0
  2 26  1  0     0  0
  3 26  1  0     0  0
  4 26  1  0     0  0
  5 27  2  0     0  0
  6  7  1  0     0  0
  6 16  1  0     0  0
  7 13  2  0     0  0
  8 14  1  0     0  0
  8 15  2  0     0  0
  9 13  1  0     0  0
  9 14  1  0     0  0
 10 27  1  0     0  0
 10 29  1  0     0  0
 10 30  1  0     0  0
 11 28  1  0     0  0
 11 31  1  0     0  0
 11 32  1  0     0  0
 12 17  1  0     0  0
 12 18  2  0     0  0
 13 19  1  0     0  0
 14 20  2  0     0  0
 15 21  1  0     0  0
 15 28  1  0     0  0
 16 19  2  0     0  0
 17 22  2  0     0  0
 17 26  1  0     0  0
 18 23  1  0     0  0
 18 27  1  0     0  0
 20 24  1  0     0  0
 21 24  2  0     0  0
 22 25  1  0     0  0
 23 25  2  0     0  0
 29 31  1  0     0  0
 30 32  1  0     0  0
M  END
> <standard_type>
pIC50

> <# Confs.>
25

> <canonical_smiles>
FC1=C(C(N2CCN(CC3=NC(NC4=NNC=C4)=CC=C3)CC2)=O)C=CC=C1C(F)(F)F

> <standard_relation>
=

> <Publication_ID>
nan

> <predicted_activity_value>
6.292429823902063

> <actual_activity_value>
6.275724130399211

> <Compound>
17

> <standard_units>
nM

> hash
1549603100698601883

$$$$
17_
XXILIB    08252103493D 0   0.00000     0.00000

 32 35  0     1  0            999 V2000
   -4.0327    4.6075    0.6331 F   0  0  0  0  0  1           0  0  0
   -4.8934    6.4812   -0.3955 F   0  0  0  0  0  1           0  0  0
   -5.2229    6.2679   -2.5296 F   0  0  0  0  0  1           0  0  0
   -6.9116    6.2191   -1.1607 F   0  0  0  0  0  1           0  0  0
   -3.8854    2.1006    2.2039 O   0  0  0  0  0  2           0  0  0
    5.4705   -3.7663    5.6761 N   0  0  0  0  0  3           0  0  0
    4.7092   -3.4644    4.6131 N   0  0  0  0  0  3           0  0  0
    3.1774   -0.8899    1.5027 N   0  0  0  0  0  3           0  0  0
    4.9035   -1.6644    2.9993 N   0  0  0  0  0  3           0  0  0
   -2.6060    1.0723    0.5476 N   0  0  1  0  0  3           0  0  0
   -0.0000    0.0000    0.0000 N   0  0  1  0  0  3           0  0  0
   -4.6775    3.7668   -0.1922 C   0  0  0  0  0  4           0  0  0
    5.2893   -2.3696    4.0956 C   0  0  0  0  0  4           0  0  0
    3.8038   -1.9126    2.1441 C   0  0  0  0  0  4           0  0  0
    2.1376   -1.1718    0.6765 C   0  0  0  0  0  4           0  0  0
    6.5156   -2.9164    5.8670 C   0  0  0  0  0  4           0  0  0
   -5.4955    4.3138   -1.1896 C   0  0  0  0  0  4           0  0  0
   -4.5279    2.3811   -0.0449 C   0  0  0  0  0  4           0  0  0
    6.4284   -1.9919    4.8566 C   0  0  0  0  0  4           0  0  0
    3.3947   -3.2353    1.9626 C   0  0  0  0  0  4           0  0  0
    1.6783   -2.4661    0.4648 C   0  0  0  0  0  4           0  0  0
   -6.1686    3.4501   -2.0573 C   0  0  0  0  0  4           0  0  0
   -5.2135    1.5335   -0.9229 C   0  0  0  0  0  4           0  0  0
    2.3224   -3.5069    1.1188 C   0  0  0  0  0  4           0  0  0
   -6.0285    2.0685   -1.9230 C   0  0  0  0  0  4           0  0  0
   -5.6268    5.7967   -1.3171 C   0  0  2  0  0  4           0  0  0
   -3.6483    1.8441    1.0299 C   0  0  0  0  0  4           0  0  0
    1.4664    0.0000   -0.0000 C   0  0  0  0  0  4           0  0  0
   -2.0719   -0.0181    1.3574 C   0  0  0  0  0  4           0  0  0
   -2.0329    1.1727   -0.7970 C   0  0  0  0  0  4           0  0  0
   -0.5431    0.0000    1.3715 C   0  0  0  0  0  4           0  0  0
   -0.5046    1.1698   -0.7407 C   0  0  0  0  0  4           0  0  0
  1 12  1  0     0  0
  2 26  1  0     0  0
  3 26  1  0     0  0
  4 26  1  0     0  0
  5 27  2  0     0  0
  6  7  1  0     0  0
  6 16  1  0     0  0
  7 13  2  0     0  0
  8 14  1  0     0  0
  8 15  2  0     0  0
  9 13  1  0     0  0
  9 14  1  0     0  0
 10 27  1  0     0  0
 10 29  1  0     0  0
 10 30  1  0     0  0
 11 28  1  0     0  0
 11 31  1  0     0  0
 11 32  1  0     0  0
 12 17  1  0     0  0
 12 18  2  0     0  0
 13 19  1  0     0  0
 14 20  2  0     0  0
 15 21  1  0     0  0
 15 28  1  0     0  0
 16 19  2  0     0  0
 17 22  2  0     0  0
 17 26  1  0     0  0
 18 23  1  0     0  0
 18 27  1  0     0  0
 20 24  1  0     0  0
 21 24  2  0     0  0
 22 25  1  0     0  0
 23 25  2  0     0  0
 29 31  1  0     0  0
 30 32  1  0     0  0
M  END
> <standard_type>
pIC50

> <# Confs.>
25

> <canonical_smiles>
FC1=C(C(N2CCN(CC3=NC(NC4=NNC=C4)=CC=C3)CC2)=O)C=CC=C1C(F)(F)F

> <standard_relation>
=

> <Publication_ID>
nan

> <predicted_activity_value>
6.292429823902063

> <actual_activity_value>
6.275724130399211

> <Compound>
17

> <standard_units>
nM

> hash
1549603100698601883

$$$$
17_
XXILIB    08252103493D 0   0.00000     0.00000

 32 35  0     1  0            999 V2000
   -4.1529    3.0931    0.4101 F   0  0  0  0  0  1           0  0  0
   -5.7898    3.7357   -1.0791 F   0  0  0  0  0  1           0  0  0
   -6.1593    5.8728   -1.1470 F   0  0  0  0  0  1           0  0  0
   -5.0492    4.9120   -2.7510 F   0  0  0  0  0  1           0  0  0
   -2.1015    3.4107    3.0548 O   0  0  0  0  0  2           0  0  0
    4.6334    2.6060   -6.9161 N   0  0  0  0  0  3           0  0  0
    3.8928    1.9395   -6.0173 N   0  0  0  0  0  3           0  0  0
    2.4101    1.2112   -1.9026 N   0  0  0  0  0  3           0  0  0
    3.3115    2.5014   -3.7307 N   0  0  0  0  0  3           0  0  0
   -0.9454    2.4289    1.2837 N   0  0  1  0  0  3           0  0  0
   -0.0000    0.0000    0.0000 N   0  0  1  0  0  3           0  0  0
   -3.4417    4.2178    0.2286 C   0  0  0  0  0  4           0  0  0
    3.9161    2.7239   -4.9278 C   0  0  0  0  0  4           0  0  0
    3.0262    1.2601   -3.1142 C   0  0  0  0  0  4           0  0  0
    2.1376    0.0000   -1.3531 C   0  0  0  0  0  4           0  0  0
    5.1326    3.7850   -6.4558 C   0  0  0  0  0  4           0  0  0
   -3.9290    5.1724   -0.6739 C   0  0  0  0  0  4           0  0  0
   -2.2439    4.4152    0.9289 C   0  0  0  0  0  4           0  0  0
    4.6870    3.8943   -5.1624 C   0  0  0  0  0  4           0  0  0
    3.3758    0.0908   -3.7926 C   0  0  0  0  0  4           0  0  0
    2.4712   -1.1971   -1.9748 C   0  0  0  0  0  4           0  0  0
   -3.2006    6.3486   -0.8687 C   0  0  0  0  0  4           0  0  0
   -1.5281    5.5993    0.7168 C   0  0  0  0  0  4           0  0  0
    3.0967   -1.1426   -3.2123 C   0  0  0  0  0  4           0  0  0
   -2.0070    6.5591   -0.1778 C   0  0  0  0  0  4           0  0  0
   -5.2120    4.9271   -1.3993 C   0  0  2  0  0  4           0  0  0
   -1.7638    3.3732    1.8779 C   0  0  0  0  0  4           0  0  0
    1.4664    0.0000   -0.0000 C   0  0  0  0  0  4           0  0  0
   -0.3954    1.3397    2.0870 C   0  0  0  0  0  4           0  0  0
   -0.4695    2.4785   -0.1029 C   0  0  0  0  0  4           0  0  0
   -0.5476    0.0000    1.3667 C   0  0  0  0  0  4           0  0  0
   -0.5864    1.1072   -0.7764 C   0  0  0  0  0  4           0  0  0
  1 12  1  0     0  0
  2 26  1  0     0  0
  3 26  1  0     0  0
  4 26  1  0     0  0
  5 27  2  0     0  0
  6  7  1  0     0  0
  6 16  1  0     0  0
  7 13  2  0     0  0
  8 14  1  0     0  0
  8 15  2  0     0  0
  9 13  1  0     0  0
  9 14  1  0     0  0
 10 27  1  0     0  0
 10 29  1  0     0  0
 10 30  1  0     0  0
 11 28  1  0     0  0
 11 31  1  0     0  0
 11 32  1  0     0  0
 12 17  1  0     0  0
 12 18  2  0     0  0
 13 19  1  0     0  0
 14 20  2  0     0  0
 15 21  1  0     0  0
 15 28  1  0     0  0
 16 19  2  0     0  0
 17 22  2  0     0  0
 17 26  1  0     0  0
 18 23  1  0     0  0
 18 27  1  0     0  0
 20 24  1  0     0  0
 21 24  2  0     0  0
 22 25  1  0     0  0
 23 25  2  0     0  0
 29 31  1  0     0  0
 30 32  1  0     0  0
M  END
> <standard_type>
pIC50

> <# Confs.>
25

> <canonical_smiles>
FC1=C(C(N2CCN(CC3=NC(NC4=NNC=C4)=CC=C3)CC2)=O)C=CC=C1C(F)(F)F

> <standard_relation>
=

> <Publication_ID>
nan

> <predicted_activity_value>
6.292429823902063

> <actual_activity_value>
6.275724130399211

> <Compound>
17

> <standard_units>
nM

> hash
1549603100698601883

$$$$
17_
XXILIB    08252103493D 0   0.00000     0.00000

 32 35  0     1  0            999 V2000
   -5.6436    1.4257   -0.9157 F   0  0  0  0  0  1           0  0  0
   -7.0336    2.0122   -2.6575 F   0  0  0  0  0  1           0  0  0
   -7.6784    4.0840   -2.6390 F   0  0  0  0  0  1           0  0  0
   -6.1545    3.4344   -4.0474 F   0  0  0  0  0  1           0  0  0
   -4.2101    1.7200    2.1113 O   0  0  0  0  0  2           0  0  0
    4.6334    4.6865    5.7149 N   0  0  0  0  0  3           0  0  0
    3.8928    4.2414    4.6883 N   0  0  0  0  0  3           0  0  0
    2.4101    1.0421    2.0002 N   0  0  0  0  0  3           0  0  0
    3.3115    1.9802    4.0317 N   0  0  0  0  0  3           0  0  0
   -2.6060    1.0723    0.5476 N   0  0  1  0  0  3           0  0  0
   -0.0000    0.0000    0.0000 N   0  0  1  0  0  3           0  0  0
   -5.0754    2.6414   -0.8615 C   0  0  0  0  0  4           0  0  0
    3.9161    2.9056    4.8228 C   0  0  0  0  0  4           0  0  0
    3.0262    2.0669    2.6483 C   0  0  0  0  0  4           0  0  0
    2.1376    1.1718    0.6765 C   0  0  0  0  0  4           0  0  0
    5.1326    3.6984    6.5058 C   0  0  0  0  0  4           0  0  0
   -5.5069    3.6164   -1.7706 C   0  0  0  0  0  4           0  0  0
   -4.0760    2.9111    0.0835 C   0  0  0  0  0  4           0  0  0
    4.6870    2.5237    5.9537 C   0  0  0  0  0  4           0  0  0
    3.3758    3.2391    1.9749 C   0  0  0  0  0  4           0  0  0
    2.4712    2.3088   -0.0493 C   0  0  0  0  0  4           0  0  0
   -4.9265    4.8863   -1.7220 C   0  0  0  0  0  4           0  0  0
   -3.5058    4.1891    0.1131 C   0  0  0  0  0  4           0  0  0
    3.0967    3.3532    0.6167 C   0  0  0  0  0  4           0  0  0
   -3.9314    5.1694   -0.7861 C   0  0  0  0  0  4           0  0  0
   -6.5773    3.2915   -2.7611 C   0  0  2  0  0  4           0  0  0
   -3.6483    1.8441    1.0299 C   0  0  0  0  0  4           0  0  0
    1.4664    0.0000    0.0000 C   0  0  0  0  0  4           0  0  0
   -2.0719   -0.0181    1.3574 C   0  0  0  0  0  4           0  0  0
   -2.0329    1.1727   -0.7970 C   0  0  0  0  0  4           0  0  0
   -0.5431    0.0000    1.3715 C   0  0  0  0  0  4           0  0  0
   -0.5046    1.1698   -0.7407 C   0  0  0  0  0  4           0  0  0
  1 12  1  0     0  0
  2 26  1  0     0  0
  3 26  1  0     0  0
  4 26  1  0     0  0
  5 27  2  0     0  0
  6  7  1  0     0  0
  6 16  1  0     0  0
  7 13  2  0     0  0
  8 14  1  0     0  0
  8 15  2  0     0  0
  9 13  1  0     0  0
  9 14  1  0     0  0
 10 27  1  0     0  0
 10 29  1  0     0  0
 10 30  1  0     0  0
 11 28  1  0     0  0
 11 31  1  0     0  0
 11 32  1  0     0  0
 12 17  1  0     0  0
 12 18  2  0     0  0
 13 19  1  0     0  0
 14 20  2  0     0  0
 15 21  1  0     0  0
 15 28  1  0     0  0
 16 19  2  0     0  0
 17 22  2  0     0  0
 17 26  1  0     0  0
 18 23  1  0     0  0
 18 27  1  0     0  0
 20 24  1  0     0  0
 21 24  2  0     0  0
 22 25  1  0     0  0
 23 25  2  0     0  0
 29 31  1  0     0  0
 30 32  1  0     0  0
M  END
> <standard_type>
pIC50

> <# Confs.>
25

> <canonical_smiles>
FC1=C(C(N2CCN(CC3=NC(NC4=NNC=C4)=CC=C3)CC2)=O)C=CC=C1C(F)(F)F

> <standard_relation>
=

> <Publication_ID>
nan

> <predicted_activity_value>
6.292429823902063

> <actual_activity_value>
6.275724130399211

> <Compound>
17

> <standard_units>
nM

> hash
1549603100698601883

$$$$
17_
XXILIB    08252103493D 0   0.00000     0.00000

 32 35  0     1  0            999 V2000
   -4.0327    4.6075    0.6331 F   0  0  0  0  0  1           0  0  0
   -4.8934    6.4812   -0.3955 F   0  0  0  0  0  1           0  0  0
   -5.2229    6.2679   -2.5296 F   0  0  0  0  0  1           0  0  0
   -6.9116    6.2191   -1.1607 F   0  0  0  0  0  1           0  0  0
   -3.8854    2.1006    2.2039 O   0  0  0  0  0  2           0  0  0
    7.4019    0.8765   -5.1417 N   0  0  0  0  0  3           0  0  0
    6.2465    0.5469   -4.5442 N   0  0  0  0  0  3           0  0  0
    3.1774    0.8564   -1.5220 N   0  0  0  0  0  3           0  0  0
    4.8973    1.7722   -2.9441 N   0  0  0  0  0  3           0  0  0
   -2.6060    1.0723    0.5476 N   0  0  1  0  0  3           0  0  0
   -0.0000    0.0000    0.0000 N   0  0  1  0  0  3           0  0  0
   -4.6775    3.7668   -0.1922 C   0  0  0  0  0  4           0  0  0
    5.9694    1.6029   -3.7625 C   0  0  0  0  0  4           0  0  0
    3.8208    0.8815   -2.7200 C   0  0  0  0  0  4           0  0  0
    2.1376    0.0000   -1.3531 C   0  0  0  0  0  4           0  0  0
    7.8821    2.0974   -4.7814 C   0  0  0  0  0  4           0  0  0
   -5.4955    4.3138   -1.1896 C   0  0  0  0  0  4           0  0  0
   -4.5279    2.3811   -0.0449 C   0  0  0  0  0  4           0  0  0
    6.9752    2.5995   -3.8820 C   0  0  0  0  0  4           0  0  0
    3.4267    0.0463   -3.7673 C   0  0  0  0  0  4           0  0  0
    1.7070   -0.8624   -2.3539 C   0  0  0  0  0  4           0  0  0
   -6.1686    3.4501   -2.0573 C   0  0  0  0  0  4           0  0  0
   -5.2135    1.5335   -0.9229 C   0  0  0  0  0  4           0  0  0
    2.3643   -0.8313   -3.5757 C   0  0  0  0  0  4           0  0  0
   -6.0285    2.0685   -1.9230 C   0  0  0  0  0  4           0  0  0
   -5.6268    5.7967   -1.3171 C   0  0  2  0  0  4           0  0  0
   -3.6483    1.8441    1.0299 C   0  0  0  0  0  4           0  0  0
    1.4664    0.0000    0.0000 C   0  0  0  0  0  4           0  0  0
   -2.0719   -0.0181    1.3574 C   0  0  0  0  0  4           0  0  0
   -2.0329    1.1727   -0.7970 C   0  0  0  0  0  4           0  0  0
   -0.5431    0.0000    1.3715 C   0  0  0  0  0  4           0  0  0
   -0.5046    1.1698   -0.7407 C   0  0  0  0  0  4           0  0  0
  1 12  1  0     0  0
  2 26  1  0     0  0
  3 26  1  0     0  0
  4 26  1  0     0  0
  5 27  2  0     0  0
  6  7  1  0     0  0
  6 16  1  0     0  0
  7 13  2  0     0  0
  8 14  1  0     0  0
  8 15  2  0     0  0
  9 13  1  0     0  0
  9 14  1  0     0  0
 10 27  1  0     0  0
 10 29  1  0     0  0
 10 30  1  0     0  0
 11 28  1  0     0  0
 11 31  1  0     0  0
 11 32  1  0     0  0
 12 17  1  0     0  0
 12 18  2  0     0  0
 13 19  1  0     0  0
 14 20  2  0     0  0
 15 21  1  0     0  0
 15 28  1  0     0  0
 16 19  2  0     0  0
 17 22  2  0     0  0
 17 26  1  0     0  0
 18 23  1  0     0  0
 18 27  1  0     0  0
 20 24  1  0     0  0
 21 24  2  0     0  0
 22 25  1  0     0  0
 23 25  2  0     0  0
 29 31  1  0     0  0
 30 32  1  0     0  0
M  END
> <standard_type>
pIC50

> <# Confs.>
25

> <canonical_smiles>
FC1=C(C(N2CCN(CC3=NC(NC4=NNC=C4)=CC=C3)CC2)=O)C=CC=C1C(F)(F)F

> <standard_relation>
=

> <Publication_ID>
nan

> <predicted_activity_value>
6.292429823902063

> <actual_activity_value>
6.275724130399211

> <Compound>
17

> <standard_units>
nM

> hash
1549603100698601883

$$$$
17_
XXILIB    08252103493D 0   0.00000     0.00000

 32 35  0     1  0            999 V2000
   -4.0537   -3.3919    0.4145 F   0  0  0  0  0  1           0  0  0
   -5.6290   -4.1552   -1.0840 F   0  0  0  0  0  1           0  0  0
   -4.8143   -5.2559   -2.7673 F   0  0  0  0  0  1           0  0  0
   -5.8057   -6.3213   -1.1517 F   0  0  0  0  0  1           0  0  0
   -1.9636   -3.5472    3.0415 O   0  0  0  0  0  2           0  0  0
    3.3196   -2.7641   -7.1667 N   0  0  0  0  0  3           0  0  0
    3.1323   -1.9868   -6.0890 N   0  0  0  0  0  3           0  0  0
    2.4101   -1.2112   -1.9026 N   0  0  0  0  0  3           0  0  0
    3.3203   -2.5014   -3.7264 N   0  0  0  0  0  3           0  0  0
   -0.9074   -2.4539    1.2732 N   0  0  1  0  0  3           0  0  0
    0.0000   -0.0000    0.0000 N   0  0  1  0  0  3           0  0  0
   -3.2452   -4.4457    0.2157 C   0  0  0  0  0  4           0  0  0
    3.3725   -2.8037   -5.0507 C   0  0  0  0  0  4           0  0  0
    3.0020   -1.2601   -3.1261 C   0  0  0  0  0  4           0  0  0
    2.1376    0.0000   -1.3531 C   0  0  0  0  0  4           0  0  0
    3.6704   -4.0448   -6.8705 C   0  0  0  0  0  4           0  0  0
   -3.6527   -5.4325   -0.6917 C   0  0  0  0  0  4           0  0  0
   -2.0303   -4.5427    0.9077 C   0  0  0  0  0  4           0  0  0
    3.7129   -4.1080   -5.5003 C   0  0  0  0  0  4           0  0  0
    3.3306   -0.0908   -3.8150 C   0  0  0  0  0  4           0  0  0
    2.4307    1.1971   -1.9949 C   0  0  0  0  0  4           0  0  0
   -2.8189   -6.5319   -0.9105 C   0  0  0  0  0  4           0  0  0
   -1.2111   -5.6539    0.6758 C   0  0  0  0  0  4           0  0  0
    3.0375    1.1426   -3.2417 C   0  0  0  0  0  4           0  0  0
   -1.6062   -6.6413   -0.2294 C   0  0  0  0  0  4           0  0  0
   -4.9537   -5.2918   -1.4128 C   0  0  2  0  0  4           0  0  0
   -1.6378   -3.4703    1.8632 C   0  0  0  0  0  4           0  0  0
    1.4664   -0.0000    0.0000 C   0  0  0  0  0  4           0  0  0
   -0.4507   -1.3309    2.0892 C   0  0  0  0  0  4           0  0  0
   -0.3928   -2.4834   -0.1005 C   0  0  0  0  0  4           0  0  0
   -0.5918    0.0000    1.3486 C   0  0  0  0  0  4           0  0  0
   -0.5470   -1.1215   -0.7806 C   0  0  0  0  0  4           0  0  0
  1 12  1  0     0  0
  2 26  1  0     0  0
  3 26  1  0     0  0
  4 26  1  0     0  0
  5 27  2  0     0  0
  6  7  1  0     0  0
  6 16  1  0     0  0
  7 13  2  0     0  0
  8 14  1  0     0  0
  8 15  2  0     0  0
  9 13  1  0     0  0
  9 14  1  0     0  0
 10 27  1  0     0  0
 10 29  1  0     0  0
 10 30  1  0     0  0
 11 28  1  0     0  0
 11 31  1  0     0  0
 11 32  1  0     0  0
 12 17  1  0     0  0
 12 18  2  0     0  0
 13 19  1  0     0  0
 14 20  2  0     0  0
 15 21  1  0     0  0
 15 28  1  0     0  0
 16 19  2  0     0  0
 17 22  2  0     0  0
 17 26  1  0     0  0
 18 23  1  0     0  0
 18 27  1  0     0  0
 20 24  1  0     0  0
 21 24  2  0     0  0
 22 25  1  0     0  0
 23 25  2  0     0  0
 29 31  1  0     0  0
 30 32  1  0     0  0
M  END
> <standard_type>
pIC50

> <# Confs.>
25

> <canonical_smiles>
FC1=C(C(N2CCN(CC3=NC(NC4=NNC=C4)=CC=C3)CC2)=O)C=CC=C1C(F)(F)F

> <standard_relation>
=

> <Publication_ID>
nan

> <predicted_activity_value>
6.292429823902063

> <actual_activity_value>
6.275724130399211

> <Compound>
17

> <standard_units>
nM

> hash
1549603100698601883

$$$$
17_
XXILIB    08252103493D 0   0.00000     0.00000

 32 35  0     1  0            999 V2000
   -2.5206    4.4265    1.0560 F   0  0  0  0  0  1           0  0  0
   -2.2375    6.6012    0.3487 F   0  0  0  0  0  1           0  0  0
   -2.5453    6.9059   -1.7776 F   0  0  0  0  0  1           0  0  0
   -4.0646    7.5438   -0.3589 F   0  0  0  0  0  1           0  0  0
   -4.2101    1.7200    2.1113 O   0  0  0  0  0  2           0  0  0
    6.0510    3.6511    5.2997 N   0  0  0  0  0  3           0  0  0
    5.3063    3.3459    4.2260 N   0  0  0  0  0  3           0  0  0
    2.4101    1.0421    2.0002 N   0  0  0  0  0  3           0  0  0
    3.3115    1.9802    4.0317 N   0  0  0  0  0  3           0  0  0
   -2.6060    1.0723    0.5476 N   0  0  1  0  0  3           0  0  0
   -0.0000    0.0000    0.0000 N   0  0  1  0  0  3           0  0  0
   -3.4757    4.1761    0.1457 C   0  0  0  0  0  4           0  0  0
    4.3343    2.5590    4.7149 C   0  0  0  0  0  4           0  0  0
    3.0262    2.0669    2.6483 C   0  0  0  0  0  4           0  0  0
    2.1376    1.1718    0.6765 C   0  0  0  0  0  4           0  0  0
    5.6029    3.0975    6.4588 C   0  0  0  0  0  4           0  0  0
   -3.8488    5.2081   -0.7254 C   0  0  0  0  0  4           0  0  0
   -4.0760    2.9111    0.0835 C   0  0  0  0  0  4           0  0  0
    4.4862    2.3772    6.1159 C   0  0  0  0  0  4           0  0  0
    3.3758    3.2391    1.9749 C   0  0  0  0  0  4           0  0  0
    2.4712    2.3088   -0.0493 C   0  0  0  0  0  4           0  0  0
   -4.8385    4.9592   -1.6797 C   0  0  0  0  0  4           0  0  0
   -5.0676    2.6838   -0.8781 C   0  0  0  0  0  4           0  0  0
    3.0967    3.3532    0.6167 C   0  0  0  0  0  4           0  0  0
   -5.4441    3.7046   -1.7538 C   0  0  0  0  0  4           0  0  0
   -3.1831    6.5423   -0.6302 C   0  0  2  0  0  4           0  0  0
   -3.6483    1.8441    1.0299 C   0  0  0  0  0  4           0  0  0
    1.4664    0.0000    0.0000 C   0  0  0  0  0  4           0  0  0
   -2.0719   -0.0181    1.3574 C   0  0  0  0  0  4           0  0  0
   -2.0329    1.1727   -0.7970 C   0  0  0  0  0  4           0  0  0
   -0.5431    0.0000    1.3715 C   0  0  0  0  0  4           0  0  0
   -0.5046    1.1698   -0.7407 C   0  0  0  0  0  4           0  0  0
  1 12  1  0     0  0
  2 26  1  0     0  0
  3 26  1  0     0  0
  4 26  1  0     0  0
  5 27  2  0     0  0
  6  7  1  0     0  0
  6 16  1  0     0  0
  7 13  2  0     0  0
  8 14  1  0     0  0
  8 15  2  0     0  0
  9 13  1  0     0  0
  9 14  1  0     0  0
 10 27  1  0     0  0
 10 29  1  0     0  0
 10 30  1  0     0  0
 11 28  1  0     0  0
 11 31  1  0     0  0
 11 32  1  0     0  0
 12 17  1  0     0  0
 12 18  2  0     0  0
 13 19  1  0     0  0
 14 20  2  0     0  0
 15 21  1  0     0  0
 15 28  1  0     0  0
 16 19  2  0     0  0
 17 22  2  0     0  0
 17 26  1  0     0  0
 18 23  1  0     0  0
 18 27  1  0     0  0
 20 24  1  0     0  0
 21 24  2  0     0  0
 22 25  1  0     0  0
 23 25  2  0     0  0
 29 31  1  0     0  0
 30 32  1  0     0  0
M  END
> <standard_type>
pIC50

> <# Confs.>
25

> <canonical_smiles>
FC1=C(C(N2CCN(CC3=NC(NC4=NNC=C4)=CC=C3)CC2)=O)C=CC=C1C(F)(F)F

> <standard_relation>
=

> <Publication_ID>
nan

> <predicted_activity_value>
6.292429823902063

> <actual_activity_value>
6.275724130399211

> <Compound>
17

> <standard_units>
nM

> hash
1549603100698601883

$$$$
17_
XXILIB    08252103493D 0   0.00000     0.00000

 32 35  0     1  0            999 V2000
   -4.0537   -3.3919    0.4145 F   0  0  0  0  0  1           0  0  0
   -5.6290   -4.1552   -1.0840 F   0  0  0  0  0  1           0  0  0
   -4.8143   -5.2559   -2.7673 F   0  0  0  0  0  1           0  0  0
   -5.8057   -6.3213   -1.1517 F   0  0  0  0  0  1           0  0  0
   -1.9636   -3.5472    3.0415 O   0  0  0  0  0  2           0  0  0
    5.4705   -3.0325   -6.0998 N   0  0  0  0  0  3           0  0  0
    4.7092   -2.2629   -5.3068 N   0  0  0  0  0  3           0  0  0
    3.1774   -0.8564   -1.5220 N   0  0  0  0  0  3           0  0  0
    4.9035   -1.7653   -2.9410 N   0  0  0  0  0  3           0  0  0
   -0.9074   -2.4539    1.2732 N   0  0  1  0  0  3           0  0  0
    0.0000   -0.0000    0.0000 N   0  0  1  0  0  3           0  0  0
   -3.2452   -4.4457    0.2157 C   0  0  0  0  0  4           0  0  0
    5.2893   -2.3621   -4.0999 C   0  0  0  0  0  4           0  0  0
    3.8038   -0.9005   -2.7284 C   0  0  0  0  0  4           0  0  0
    2.1376    0.0000   -1.3531 C   0  0  0  0  0  4           0  0  0
    6.5156   -3.6228   -5.4592 C   0  0  0  0  0  4           0  0  0
   -3.6527   -5.4325   -0.6917 C   0  0  0  0  0  4           0  0  0
   -2.0303   -4.5427    0.9077 C   0  0  0  0  0  4           0  0  0
    6.4284   -3.2100   -4.1533 C   0  0  0  0  0  4           0  0  0
    3.3947   -0.0820   -3.7832 C   0  0  0  0  0  4           0  0  0
    1.6783    0.8305   -2.3681 C   0  0  0  0  0  4           0  0  0
   -2.8189   -6.5319   -0.9105 C   0  0  0  0  0  4           0  0  0
   -1.2111   -5.6539    0.6758 C   0  0  0  0  0  4           0  0  0
    2.3224    0.7845   -3.5964 C   0  0  0  0  0  4           0  0  0
   -1.6062   -6.6413   -0.2294 C   0  0  0  0  0  4           0  0  0
   -4.9537   -5.2918   -1.4128 C   0  0  2  0  0  4           0  0  0
   -1.6378   -3.4703    1.8632 C   0  0  0  0  0  4           0  0  0
    1.4664    0.0000    0.0000 C   0  0  0  0  0  4           0  0  0
   -0.4507   -1.3309    2.0892 C   0  0  0  0  0  4           0  0  0
   -0.3928   -2.4834   -0.1005 C   0  0  0  0  0  4           0  0  0
   -0.5918    0.0000    1.3486 C   0  0  0  0  0  4           0  0  0
   -0.5470   -1.1215   -0.7806 C   0  0  0  0  0  4           0  0  0
  1 12  1  0     0  0
  2 26  1  0     0  0
  3 26  1  0     0  0
  4 26  1  0     0  0
  5 27  2  0     0  0
  6  7  1  0     0  0
  6 16  1  0     0  0
  7 13  2  0     0  0
  8 14  1  0     0  0
  8 15  2  0     0  0
  9 13  1  0     0  0
  9 14  1  0     0  0
 10 27  1  0     0  0
 10 29  1  0     0  0
 10 30  1  0     0  0
 11 28  1  0     0  0
 11 31  1  0     0  0
 11 32  1  0     0  0
 12 17  1  0     0  0
 12 18  2  0     0  0
 13 19  1  0     0  0
 14 20  2  0     0  0
 15 21  1  0     0  0
 15 28  1  0     0  0
 16 19  2  0     0  0
 17 22  2  0     0  0
 17 26  1  0     0  0
 18 23  1  0     0  0
 18 27  1  0     0  0
 20 24  1  0     0  0
 21 24  2  0     0  0
 22 25  1  0     0  0
 23 25  2  0     0  0
 29 31  1  0     0  0
 30 32  1  0     0  0
M  END
> <standard_type>
pIC50

> <# Confs.>
25

> <canonical_smiles>
FC1=C(C(N2CCN(CC3=NC(NC4=NNC=C4)=CC=C3)CC2)=O)C=CC=C1C(F)(F)F

> <standard_relation>
=

> <Publication_ID>
nan

> <predicted_activity_value>
6.292429823902063

> <actual_activity_value>
6.275724130399211

> <Compound>
17

> <standard_units>
nM

> hash
1549603100698601883

$$$$
17_
XXILIB    08252103493D 0   0.00000     0.00000

 32 35  0     1  0            999 V2000
   -0.0179   -5.7237    1.3739 F   0  0  0  0  0  1           0  0  0
    0.5417   -7.7356    0.3998 F   0  0  0  0  0  1           0  0  0
   -1.1471   -9.0235   -0.0450 F   0  0  0  0  0  1           0  0  0
   -0.1515   -7.9464   -1.6502 F   0  0  0  0  0  1           0  0  0
   -1.9636   -3.5472    3.0415 O   0  0  0  0  0  2           0  0  0
    7.4019    4.0146    3.3299 N   0  0  0  0  0  3           0  0  0
    6.2465    3.6620    2.7458 N   0  0  0  0  0  3           0  0  0
    3.1774    0.8899    1.5027 N   0  0  0  0  0  3           0  0  0
    4.8973    1.6636    3.0069 N   0  0  0  0  0  3           0  0  0
   -0.9074   -2.4539    1.2732 N   0  0  1  0  0  3           0  0  0
    0.0000   -0.0000    0.0000 N   0  0  1  0  0  3           0  0  0
   -1.1814   -5.6400    0.7084 C   0  0  0  0  0  4           0  0  0
    5.9694    2.4570    3.2694 C   0  0  0  0  0  4           0  0  0
    3.8208    1.9148    2.1234 C   0  0  0  0  0  4           0  0  0
    2.1376    1.1718    0.6765 C   0  0  0  0  0  4           0  0  0
    7.8821    3.0921    4.2071 C   0  0  0  0  0  4           0  0  0
   -1.5121   -6.6705   -0.1815 C   0  0  0  0  0  4           0  0  0
   -2.0303   -4.5427    0.9077 C   0  0  0  0  0  4           0  0  0
    6.9752    2.0622    4.1923 C   0  0  0  0  0  4           0  0  0
    3.4267    3.2394    1.9238 C   0  0  0  0  0  4           0  0  0
    1.7070    2.4697    0.4300 C   0  0  0  0  0  4           0  0  0
   -2.7216   -6.5973   -0.8771 C   0  0  0  0  0  4           0  0  0
   -3.2359   -4.4876    0.1986 C   0  0  0  0  0  4           0  0  0
    2.3643    3.5123    1.0679 C   0  0  0  0  0  4           0  0  0
   -3.5769   -5.5114   -0.6880 C   0  0  0  0  0  4           0  0  0
   -0.5824   -7.8257   -0.3643 C   0  0  2  0  0  4           0  0  0
   -1.6378   -3.4703    1.8632 C   0  0  0  0  0  4           0  0  0
    1.4664   -0.0000    0.0000 C   0  0  0  0  0  4           0  0  0
   -0.4507   -1.3309    2.0892 C   0  0  0  0  0  4           0  0  0
   -0.3928   -2.4834   -0.1005 C   0  0  0  0  0  4           0  0  0
   -0.5918    0.0000    1.3486 C   0  0  0  0  0  4           0  0  0
   -0.5470   -1.1215   -0.7806 C   0  0  0  0  0  4           0  0  0
  1 12  1  0     0  0
  2 26  1  0     0  0
  3 26  1  0     0  0
  4 26  1  0     0  0
  5 27  2  0     0  0
  6  7  1  0     0  0
  6 16  1  0     0  0
  7 13  2  0     0  0
  8 14  1  0     0  0
  8 15  2  0     0  0
  9 13  1  0     0  0
  9 14  1  0     0  0
 10 27  1  0     0  0
 10 29  1  0     0  0
 10 30  1  0     0  0
 11 28  1  0     0  0
 11 31  1  0     0  0
 11 32  1  0     0  0
 12 17  1  0     0  0
 12 18  2  0     0  0
 13 19  1  0     0  0
 14 20  2  0     0  0
 15 21  1  0     0  0
 15 28  1  0     0  0
 16 19  2  0     0  0
 17 22  2  0     0  0
 17 26  1  0     0  0
 18 23  1  0     0  0
 18 27  1  0     0  0
 20 24  1  0     0  0
 21 24  2  0     0  0
 22 25  1  0     0  0
 23 25  2  0     0  0
 29 31  1  0     0  0
 30 32  1  0     0  0
M  END
> <standard_type>
pIC50

> <# Confs.>
25

> <canonical_smiles>
FC1=C(C(N2CCN(CC3=NC(NC4=NNC=C4)=CC=C3)CC2)=O)C=CC=C1C(F)(F)F

> <standard_relation>
=

> <Publication_ID>
nan

> <predicted_activity_value>
6.292429823902063

> <actual_activity_value>
6.275724130399211

> <Compound>
17

> <standard_units>
nM

> hash
1549603100698601883

$$$$
17_
XXILIB    08252103493D 0   0.00000     0.00000

 32 35  0     1  0            999 V2000
   -4.0537   -3.3919    0.4145 F   0  0  0  0  0  1           0  0  0
   -5.6290   -4.1552   -1.0840 F   0  0  0  0  0  1           0  0  0
   -4.8143   -5.2559   -2.7673 F   0  0  0  0  0  1           0  0  0
   -5.8057   -6.3213   -1.1517 F   0  0  0  0  0  1           0  0  0
   -1.9636   -3.5472    3.0415 O   0  0  0  0  0  2           0  0  0
    7.4019    4.0146    3.3299 N   0  0  0  0  0  3           0  0  0
    6.2465    3.6620    2.7458 N   0  0  0  0  0  3           0  0  0
    3.1774    0.8899    1.5027 N   0  0  0  0  0  3           0  0  0
    4.8973    1.6636    3.0069 N   0  0  0  0  0  3           0  0  0
   -0.9074   -2.4539    1.2732 N   0  0  1  0  0  3           0  0  0
    0.0000   -0.0000    0.0000 N   0  0  1  0  0  3           0  0  0
   -3.2452   -4.4457    0.2157 C   0  0  0  0  0  4           0  0  0
    5.9694    2.4570    3.2694 C   0  0  0  0  0  4           0  0  0
    3.8208    1.9148    2.1234 C   0  0  0  0  0  4           0  0  0
    2.1376    1.1718    0.6765 C   0  0  0  0  0  4           0  0  0
    7.8821    3.0921    4.2071 C   0  0  0  0  0  4           0  0  0
   -3.6527   -5.4325   -0.6917 C   0  0  0  0  0  4           0  0  0
   -2.0303   -4.5427    0.9077 C   0  0  0  0  0  4           0  0  0
    6.9752    2.0622    4.1923 C   0  0  0  0  0  4           0  0  0
    3.4267    3.2394    1.9238 C   0  0  0  0  0  4           0  0  0
    1.7070    2.4697    0.4300 C   0  0  0  0  0  4           0  0  0
   -2.8189   -6.5319   -0.9105 C   0  0  0  0  0  4           0  0  0
   -1.2111   -5.6539    0.6758 C   0  0  0  0  0  4           0  0  0
    2.3643    3.5123    1.0679 C   0  0  0  0  0  4           0  0  0
   -1.6062   -6.6413   -0.2294 C   0  0  0  0  0  4           0  0  0
   -4.9537   -5.2918   -1.4128 C   0  0  2  0  0  4           0  0  0
   -1.6378   -3.4703    1.8632 C   0  0  0  0  0  4           0  0  0
    1.4664   -0.0000    0.0000 C   0  0  0  0  0  4           0  0  0
   -0.4507   -1.3309    2.0892 C   0  0  0  0  0  4           0  0  0
   -0.3928   -2.4834   -0.1005 C   0  0  0  0  0  4           0  0  0
   -0.5918    0.0000    1.3486 C   0  0  0  0  0  4           0  0  0
   -0.5470   -1.1215   -0.7806 C   0  0  0  0  0  4           0  0  0
  1 12  1  0     0  0
  2 26  1  0     0  0
  3 26  1  0     0  0
  4 26  1  0     0  0
  5 27  2  0     0  0
  6  7  1  0     0  0
  6 16  1  0     0  0
  7 13  2  0     0  0
  8 14  1  0     0  0
  8 15  2  0     0  0
  9 13  1  0     0  0
  9 14  1  0     0  0
 10 27  1  0     0  0
 10 29  1  0     0  0
 10 30  1  0     0  0
 11 28  1  0     0  0
 11 31  1  0     0  0
 11 32  1  0     0  0
 12 17  1  0     0  0
 12 18  2  0     0  0
 13 19  1  0     0  0
 14 20  2  0     0  0
 15 21  1  0     0  0
 15 28  1  0     0  0
 16 19  2  0     0  0
 17 22  2  0     0  0
 17 26  1  0     0  0
 18 23  1  0     0  0
 18 27  1  0     0  0
 20 24  1  0     0  0
 21 24  2  0     0  0
 22 25  1  0     0  0
 23 25  2  0     0  0
 29 31  1  0     0  0
 30 32  1  0     0  0
M  END
> <standard_type>
pIC50

> <# Confs.>
25

> <canonical_smiles>
FC1=C(C(N2CCN(CC3=NC(NC4=NNC=C4)=CC=C3)CC2)=O)C=CC=C1C(F)(F)F

> <standard_relation>
=

> <Publication_ID>
nan

> <predicted_activity_value>
6.292429823902063

> <actual_activity_value>
6.275724130399211

> <Compound>
17

> <standard_units>
nM

> hash
1549603100698601883

$$$$
17_
XXILIB    08252103493D 0   0.00000     0.00000

 32 35  0     1  0            999 V2000
   -4.1529    3.0931    0.4101 F   0  0  0  0  0  1           0  0  0
   -5.7898    3.7357   -1.0791 F   0  0  0  0  0  1           0  0  0
   -6.1593    5.8728   -1.1470 F   0  0  0  0  0  1           0  0  0
   -5.0492    4.9120   -2.7510 F   0  0  0  0  0  1           0  0  0
   -2.1015    3.4107    3.0548 O   0  0  0  0  0  2           0  0  0
    7.4019    0.8765   -5.1417 N   0  0  0  0  0  3           0  0  0
    6.2465    0.5469   -4.5442 N   0  0  0  0  0  3           0  0  0
    3.1774    0.8564   -1.5220 N   0  0  0  0  0  3           0  0  0
    4.8973    1.7722   -2.9441 N   0  0  0  0  0  3           0  0  0
   -0.9454    2.4289    1.2837 N   0  0  1  0  0  3           0  0  0
   -0.0000    0.0000    0.0000 N   0  0  1  0  0  3           0  0  0
   -3.4417    4.2178    0.2286 C   0  0  0  0  0  4           0  0  0
    5.9694    1.6029   -3.7625 C   0  0  0  0  0  4           0  0  0
    3.8208    0.8815   -2.7200 C   0  0  0  0  0  4           0  0  0
    2.1376    0.0000   -1.3531 C   0  0  0  0  0  4           0  0  0
    7.8821    2.0974   -4.7814 C   0  0  0  0  0  4           0  0  0
   -3.9290    5.1724   -0.6739 C   0  0  0  0  0  4           0  0  0
   -2.2439    4.4152    0.9289 C   0  0  0  0  0  4           0  0  0
    6.9752    2.5995   -3.8820 C   0  0  0  0  0  4           0  0  0
    3.4267    0.0463   -3.7673 C   0  0  0  0  0  4           0  0  0
    1.7070   -0.8624   -2.3539 C   0  0  0  0  0  4           0  0  0
   -3.2006    6.3486   -0.8687 C   0  0  0  0  0  4           0  0  0
   -1.5281    5.5993    0.7168 C   0  0  0  0  0  4           0  0  0
    2.3643   -0.8313   -3.5757 C   0  0  0  0  0  4           0  0  0
   -2.0070    6.5591   -0.1778 C   0  0  0  0  0  4           0  0  0
   -5.2120    4.9271   -1.3993 C   0  0  2  0  0  4           0  0  0
   -1.7638    3.3732    1.8779 C   0  0  0  0  0  4           0  0  0
    1.4664    0.0000    0.0000 C   0  0  0  0  0  4           0  0  0
   -0.3954    1.3397    2.0870 C   0  0  0  0  0  4           0  0  0
   -0.4695    2.4785   -0.1029 C   0  0  0  0  0  4           0  0  0
   -0.5476    0.0000    1.3667 C   0  0  0  0  0  4           0  0  0
   -0.5864    1.1072   -0.7764 C   0  0  0  0  0  4           0  0  0
  1 12  1  0     0  0
  2 26  1  0     0  0
  3 26  1  0     0  0
  4 26  1  0     0  0
  5 27  2  0     0  0
  6  7  1  0     0  0
  6 16  1  0     0  0
  7 13  2  0     0  0
  8 14  1  0     0  0
  8 15  2  0     0  0
  9 13  1  0     0  0
  9 14  1  0     0  0
 10 27  1  0     0  0
 10 29  1  0     0  0
 10 30  1  0     0  0
 11 28  1  0     0  0
 11 31  1  0     0  0
 11 32  1  0     0  0
 12 17  1  0     0  0
 12 18  2  0     0  0
 13 19  1  0     0  0
 14 20  2  0     0  0
 15 21  1  0     0  0
 15 28  1  0     0  0
 16 19  2  0     0  0
 17 22  2  0     0  0
 17 26  1  0     0  0
 18 23  1  0     0  0
 18 27  1  0     0  0
 20 24  1  0     0  0
 21 24  2  0     0  0
 22 25  1  0     0  0
 23 25  2  0     0  0
 29 31  1  0     0  0
 30 32  1  0     0  0
M  END
> <standard_type>
pIC50

> <# Confs.>
25

> <canonical_smiles>
FC1=C(C(N2CCN(CC3=NC(NC4=NNC=C4)=CC=C3)CC2)=O)C=CC=C1C(F)(F)F

> <standard_relation>
=

> <Publication_ID>
nan

> <predicted_activity_value>
6.292429823902063

> <actual_activity_value>
6.275724130399211

> <Compound>
17

> <standard_units>
nM

> hash
1549603100698601883

$$$$
17_
XXILIB    08252103493D 0   0.00000     0.00000

 32 35  0     1  0            999 V2000
   -0.0179   -5.7237    1.3739 F   0  0  0  0  0  1           0  0  0
    0.5417   -7.7356    0.3998 F   0  0  0  0  0  1           0  0  0
   -1.1471   -9.0235   -0.0450 F   0  0  0  0  0  1           0  0  0
   -0.1515   -7.9464   -1.6502 F   0  0  0  0  0  1           0  0  0
   -1.9636   -3.5472    3.0415 O   0  0  0  0  0  2           0  0  0
    5.4705   -3.0325   -6.0998 N   0  0  0  0  0  3           0  0  0
    4.7092   -2.2629   -5.3068 N   0  0  0  0  0  3           0  0  0
    3.1774   -0.8564   -1.5220 N   0  0  0  0  0  3           0  0  0
    4.9035   -1.7653   -2.9410 N   0  0  0  0  0  3           0  0  0
   -0.9074   -2.4539    1.2732 N   0  0  1  0  0  3           0  0  0
    0.0000   -0.0000    0.0000 N   0  0  1  0  0  3           0  0  0
   -1.1814   -5.6400    0.7084 C   0  0  0  0  0  4           0  0  0
    5.2893   -2.3621   -4.0999 C   0  0  0  0  0  4           0  0  0
    3.8038   -0.9005   -2.7284 C   0  0  0  0  0  4           0  0  0
    2.1376    0.0000   -1.3531 C   0  0  0  0  0  4           0  0  0
    6.5156   -3.6228   -5.4592 C   0  0  0  0  0  4           0  0  0
   -1.5121   -6.6705   -0.1815 C   0  0  0  0  0  4           0  0  0
   -2.0303   -4.5427    0.9077 C   0  0  0  0  0  4           0  0  0
    6.4284   -3.2100   -4.1533 C   0  0  0  0  0  4           0  0  0
    3.3947   -0.0820   -3.7832 C   0  0  0  0  0  4           0  0  0
    1.6783    0.8305   -2.3681 C   0  0  0  0  0  4           0  0  0
   -2.7216   -6.5973   -0.8771 C   0  0  0  0  0  4           0  0  0
   -3.2359   -4.4876    0.1986 C   0  0  0  0  0  4           0  0  0
    2.3224    0.7845   -3.5964 C   0  0  0  0  0  4           0  0  0
   -3.5769   -5.5114   -0.6880 C   0  0  0  0  0  4           0  0  0
   -0.5824   -7.8257   -0.3643 C   0  0  2  0  0  4           0  0  0
   -1.6378   -3.4703    1.8632 C   0  0  0  0  0  4           0  0  0
    1.4664    0.0000    0.0000 C   0  0  0  0  0  4           0  0  0
   -0.4507   -1.3309    2.0892 C   0  0  0  0  0  4           0  0  0
   -0.3928   -2.4834   -0.1005 C   0  0  0  0  0  4           0  0  0
   -0.5918    0.0000    1.3486 C   0  0  0  0  0  4           0  0  0
   -0.5470   -1.1215   -0.7806 C   0  0  0  0  0  4           0  0  0
  1 12  1  0     0  0
  2 26  1  0     0  0
  3 26  1  0     0  0
  4 26  1  0     0  0
  5 27  2  0     0  0
  6  7  1  0     0  0
  6 16  1  0     0  0
  7 13  2  0     0  0
  8 14  1  0     0  0
  8 15  2  0     0  0
  9 13  1  0     0  0
  9 14  1  0     0  0
 10 27  1  0     0  0
 10 29  1  0     0  0
 10 30  1  0     0  0
 11 28  1  0     0  0
 11 31  1  0     0  0
 11 32  1  0     0  0
 12 17  1  0     0  0
 12 18  2  0     0  0
 13 19  1  0     0  0
 14 20  2  0     0  0
 15 21  1  0     0  0
 15 28  1  0     0  0
 16 19  2  0     0  0
 17 22  2  0     0  0
 17 26  1  0     0  0
 18 23  1  0     0  0
 18 27  1  0     0  0
 20 24  1  0     0  0
 21 24  2  0     0  0
 22 25  1  0     0  0
 23 25  2  0     0  0
 29 31  1  0     0  0
 30 32  1  0     0  0
M  END
> <standard_type>
pIC50

> <# Confs.>
25

> <canonical_smiles>
FC1=C(C(N2CCN(CC3=NC(NC4=NNC=C4)=CC=C3)CC2)=O)C=CC=C1C(F)(F)F

> <standard_relation>
=

> <Publication_ID>
nan

> <predicted_activity_value>
6.292429823902063

> <actual_activity_value>
6.275724130399211

> <Compound>
17

> <standard_units>
nM

> hash
1549603100698601883

$$$$
16_
XXILIB    08252103493D 0   0.00000     0.00000

 29 32  0     1  0            999 V2000
   -3.4356   -6.8346   -0.3391 Cl  0  0  0  0  0  1           0  0  0
    4.5956   -4.2821   -5.3410 S   0  0  0  0  0  2           0  0  0
   -2.6156   -4.4307    1.1725 F   0  0  0  0  0  1           0  0  0
   -4.1920   -1.6530    2.1281 O   0  0  0  0  0  2           0  0  0
    5.1731   -1.8051   -4.9663 N   0  0  0  0  0  3           0  0  0
    2.4104   -1.2115   -1.9022 N   0  0  0  0  0  3           0  0  0
    3.2815   -2.4971   -3.7490 N   0  0  0  0  0  3           0  0  0
   -2.6075   -1.0680    0.5484 N   0  0  2  0  0  3           0  0  0
    0.0000    0.0000    0.0000 N   0  0  2  0  0  3           0  0  0
   -4.1111   -5.2567   -0.4719 C   0  0  0  0  0  4           0  0  0
    4.3029   -2.7319   -4.6061 C   0  0  0  0  0  4           0  0  0
    5.9531   -3.6490   -6.1623 C   0  0  0  0  0  4           0  0  0
   -3.6193   -4.2140    0.3086 C   0  0  0  0  0  4           0  0  0
    3.0003   -1.2623   -3.1270 C   0  0  0  0  0  4           0  0  0
    2.1380    0.0000   -1.3533 C   0  0  0  0  0  4           0  0  0
    6.1066   -2.3214   -5.8416 C   0  0  0  0  0  4           0  0  0
   -4.1740   -2.9409    0.1928 C   0  0  0  0  0  4           0  0  0
   -5.1583   -5.0250   -1.3657 C   0  0  0  0  0  4           0  0  0
    3.3008   -0.0930   -3.8287 C   0  0  0  0  0  4           0  0  0
    2.4233    1.1969   -1.9989 C   0  0  0  0  0  4           0  0  0
   -5.2252   -2.6980   -0.6908 C   0  0  0  0  0  4           0  0  0
   -5.7135   -3.7462   -1.4720 C   0  0  0  0  0  4           0  0  0
    3.0129    1.1410   -3.2536 C   0  0  0  0  0  4           0  0  0
   -3.6615   -1.8343    1.0316 C   0  0  0  0  0  4           0  0  0
    1.4663   -0.0000   -0.0000 C   0  0  0  0  0  4           0  0  0
   -2.0707    0.0224    1.3564 C   0  0  0  0  0  4           0  0  0
   -2.0334   -1.1745   -0.7953 C   0  0  0  0  0  4           0  0  0
   -0.5423    0.0000    1.3718 C   0  0  0  0  0  4           0  0  0
   -0.5050   -1.1697   -0.7404 C   0  0  0  0  0  4           0  0  0
  1 10  1  0     0  0
  2 11  1  0     0  0
  2 12  1  0     0  0
  3 13  1  0     0  0
  4 24  2  0     0  0
  5 11  2  0     0  0
  5 16  1  0     0  0
  6 14  1  0     0  0
  6 15  2  0     0  0
  7 11  1  0     0  0
  7 14  1  0     0  0
  8 24  1  0     0  0
  8 26  1  0     0  0
  8 27  1  0     0  0
  9 25  1  0     0  0
  9 28  1  0     0  0
  9 29  1  0     0  0
 10 13  2  0     0  0
 10 18  1  0     0  0
 12 16  2  0     0  0
 13 17  1  0     0  0
 14 19  2  0     0  0
 15 20  1  0     0  0
 15 25  1  0     0  0
 17 21  2  0     0  0
 17 24  1  0     0  0
 18 22  2  0     0  0
 19 23  1  0     0  0
 20 23  2  0     0  0
 21 22  1  0     0  0
 26 28  1  0     0  0
 27 29  1  0     0  0
M  END
> <standard_type>
pIC50

> <# Confs.>
25

> <canonical_smiles>
O=C(C1=CC=CC(Cl)=C1F)N(CC2)CCN2CC3=NC(NC4=NC=CS4)=CC=C3

> <standard_relation>
=

> <Publication_ID>
nan

> <predicted_activity_value>
6.292429823902063

> <actual_activity_value>
6.356547323513812

> <Compound>
16

> <standard_units>
nM

> hash
4781207289351067986

$$$$
16_
XXILIB    08252103493D 0   0.00000     0.00000

 29 32  0     1  0            999 V2000
   -3.4356   -6.8346   -0.3391 Cl  0  0  0  0  0  1           0  0  0
    4.3282   -3.9135   -5.8336 S   0  0  0  0  0  2           0  0  0
   -2.6156   -4.4307    1.1725 F   0  0  0  0  0  1           0  0  0
   -4.1920   -1.6530    2.1281 O   0  0  0  0  0  2           0  0  0
    2.5676   -2.0434   -5.9453 N   0  0  0  0  0  3           0  0  0
    2.4104   -1.2115   -1.9022 N   0  0  0  0  0  3           0  0  0
    3.2815   -2.4971   -3.7490 N   0  0  0  0  0  3           0  0  0
   -2.6075   -1.0680    0.5484 N   0  0  2  0  0  3           0  0  0
    0.0000    0.0000    0.0000 N   0  0  2  0  0  3           0  0  0
   -4.1111   -5.2567   -0.4719 C   0  0  0  0  0  4           0  0  0
    3.3106   -2.7167   -5.0847 C   0  0  0  0  0  4           0  0  0
    3.7266   -3.4787   -7.3721 C   0  0  0  0  0  4           0  0  0
   -3.6193   -4.2140    0.3086 C   0  0  0  0  0  4           0  0  0
    3.0003   -1.2623   -3.1270 C   0  0  0  0  0  4           0  0  0
    2.1380    0.0000   -1.3533 C   0  0  0  0  0  4           0  0  0
    2.8033   -2.4697   -7.2364 C   0  0  0  0  0  4           0  0  0
   -4.1740   -2.9409    0.1928 C   0  0  0  0  0  4           0  0  0
   -5.1583   -5.0250   -1.3657 C   0  0  0  0  0  4           0  0  0
    3.3008   -0.0930   -3.8287 C   0  0  0  0  0  4           0  0  0
    2.4233    1.1969   -1.9989 C   0  0  0  0  0  4           0  0  0
   -5.2252   -2.6980   -0.6908 C   0  0  0  0  0  4           0  0  0
   -5.7135   -3.7462   -1.4720 C   0  0  0  0  0  4           0  0  0
    3.0129    1.1410   -3.2536 C   0  0  0  0  0  4           0  0  0
   -3.6615   -1.8343    1.0316 C   0  0  0  0  0  4           0  0  0
    1.4663   -0.0000   -0.0000 C   0  0  0  0  0  4           0  0  0
   -2.0707    0.0224    1.3564 C   0  0  0  0  0  4           0  0  0
   -2.0334   -1.1745   -0.7953 C   0  0  0  0  0  4           0  0  0
   -0.5423    0.0000    1.3718 C   0  0  0  0  0  4           0  0  0
   -0.5050   -1.1697   -0.7404 C   0  0  0  0  0  4           0  0  0
  1 10  1  0     0  0
  2 11  1  0     0  0
  2 12  1  0     0  0
  3 13  1  0     0  0
  4 24  2  0     0  0
  5 11  2  0     0  0
  5 16  1  0     0  0
  6 14  1  0     0  0
  6 15  2  0     0  0
  7 11  1  0     0  0
  7 14  1  0     0  0
  8 24  1  0     0  0
  8 26  1  0     0  0
  8 27  1  0     0  0
  9 25  1  0     0  0
  9 28  1  0     0  0
  9 29  1  0     0  0
 10 13  2  0     0  0
 10 18  1  0     0  0
 12 16  2  0     0  0
 13 17  1  0     0  0
 14 19  2  0     0  0
 15 20  1  0     0  0
 15 25  1  0     0  0
 17 21  2  0     0  0
 17 24  1  0     0  0
 18 22  2  0     0  0
 19 23  1  0     0  0
 20 23  2  0     0  0
 21 22  1  0     0  0
 26 28  1  0     0  0
 27 29  1  0     0  0
M  END
> <standard_type>
pIC50

> <# Confs.>
25

> <canonical_smiles>
O=C(C1=CC=CC(Cl)=C1F)N(CC2)CCN2CC3=NC(NC4=NC=CS4)=CC=C3

> <standard_relation>
=

> <Publication_ID>
nan

> <predicted_activity_value>
6.292429823902063

> <actual_activity_value>
6.356547323513812

> <Compound>
16

> <standard_units>
nM

> hash
4781207289351067986

$$$$
16_
XXILIB    08252103493D 0   0.00000     0.00000

 29 32  0     1  0            999 V2000
   -6.9598   -3.4691   -2.6266 Cl  0  0  0  0  0  1           0  0  0
    4.5956   -4.2821   -5.3410 S   0  0  0  0  0  2           0  0  0
   -5.7457   -1.4799   -0.8086 F   0  0  0  0  0  1           0  0  0
   -4.1920   -1.6530    2.1281 O   0  0  0  0  0  2           0  0  0
    5.1731   -1.8051   -4.9663 N   0  0  0  0  0  3           0  0  0
    2.4104   -1.2115   -1.9022 N   0  0  0  0  0  3           0  0  0
    3.2815   -2.4971   -3.7490 N   0  0  0  0  0  3           0  0  0
   -2.6075   -1.0680    0.5484 N   0  0  2  0  0  3           0  0  0
    0.0000    0.0000    0.0000 N   0  0  2  0  0  3           0  0  0
   -5.6815   -3.7451   -1.5070 C   0  0  0  0  0  4           0  0  0
    4.3029   -2.7319   -4.6061 C   0  0  0  0  0  4           0  0  0
    5.9531   -3.6490   -6.1623 C   0  0  0  0  0  4           0  0  0
   -5.2093   -2.7060   -0.7097 C   0  0  0  0  0  4           0  0  0
    3.0003   -1.2623   -3.1270 C   0  0  0  0  0  4           0  0  0
    2.1380    0.0000   -1.3533 C   0  0  0  0  0  4           0  0  0
    6.1066   -2.3214   -5.8416 C   0  0  0  0  0  4           0  0  0
   -4.1740   -2.9409    0.1928 C   0  0  0  0  0  4           0  0  0
   -5.1160   -5.0173   -1.4018 C   0  0  0  0  0  4           0  0  0
    3.3008   -0.0930   -3.8287 C   0  0  0  0  0  4           0  0  0
    2.4233    1.1969   -1.9989 C   0  0  0  0  0  4           0  0  0
   -3.5957   -4.2053    0.3024 C   0  0  0  0  0  4           0  0  0
   -4.0736   -5.2437   -0.4979 C   0  0  0  0  0  4           0  0  0
    3.0129    1.1410   -3.2536 C   0  0  0  0  0  4           0  0  0
   -3.6615   -1.8343    1.0316 C   0  0  0  0  0  4           0  0  0
    1.4663   -0.0000   -0.0000 C   0  0  0  0  0  4           0  0  0
   -2.0707    0.0224    1.3564 C   0  0  0  0  0  4           0  0  0
   -2.0334   -1.1745   -0.7953 C   0  0  0  0  0  4           0  0  0
   -0.5423    0.0000    1.3718 C   0  0  0  0  0  4           0  0  0
   -0.5050   -1.1697   -0.7404 C   0  0  0  0  0  4           0  0  0
  1 10  1  0     0  0
  2 11  1  0     0  0
  2 12  1  0     0  0
  3 13  1  0     0  0
  4 24  2  0     0  0
  5 11  2  0     0  0
  5 16  1  0     0  0
  6 14  1  0     0  0
  6 15  2  0     0  0
  7 11  1  0     0  0
  7 14  1  0     0  0
  8 24  1  0     0  0
  8 26  1  0     0  0
  8 27  1  0     0  0
  9 25  1  0     0  0
  9 28  1  0     0  0
  9 29  1  0     0  0
 10 13  2  0     0  0
 10 18  1  0     0  0
 12 16  2  0     0  0
 13 17  1  0     0  0
 14 19  2  0     0  0
 15 20  1  0     0  0
 15 25  1  0     0  0
 17 21  2  0     0  0
 17 24  1  0     0  0
 18 22  2  0     0  0
 19 23  1  0     0  0
 20 23  2  0     0  0
 21 22  1  0     0  0
 26 28  1  0     0  0
 27 29  1  0     0  0
M  END
> <standard_type>
pIC50

> <# Confs.>
25

> <canonical_smiles>
O=C(C1=CC=CC(Cl)=C1F)N(CC2)CCN2CC3=NC(NC4=NC=CS4)=CC=C3

> <standard_relation>
=

> <Publication_ID>
nan

> <predicted_activity_value>
6.292429823902063

> <actual_activity_value>
6.356547323513812

> <Compound>
16

> <standard_units>
nM

> hash
4781207289351067986

$$$$
16_
XXILIB    08252103493D 0   0.00000     0.00000

 29 32  0     1  0            999 V2000
   -3.4356   -6.8346   -0.3391 Cl  0  0  0  0  0  1           0  0  0
    6.8529    2.5938    4.6684 S   0  0  0  0  0  2           0  0  0
   -2.6156   -4.4307    1.1725 F   0  0  0  0  0  1           0  0  0
   -4.1920   -1.6530    2.1281 O   0  0  0  0  0  2           0  0  0
    6.3952    3.3668    2.2596 N   0  0  0  0  0  3           0  0  0
    3.1777    0.8892    1.5025 N   0  0  0  0  0  3           0  0  0
    4.9255    1.6716    2.9706 N   0  0  0  0  0  3           0  0  0
   -2.6075   -1.0680    0.5484 N   0  0  2  0  0  3           0  0  0
    0.0000    0.0000    0.0000 N   0  0  2  0  0  3           0  0  0
   -4.1111   -5.2567   -0.4719 C   0  0  0  0  0  4           0  0  0
    5.9619    2.5185    3.1753 C   0  0  0  0  0  4           0  0  0
    7.8458    3.8269    4.0268 C   0  0  0  0  0  4           0  0  0
   -3.6193   -4.2140    0.3086 C   0  0  0  0  0  4           0  0  0
    3.8245    1.9132    2.1221 C   0  0  0  0  0  4           0  0  0
    2.1380    1.1720    0.6767 C   0  0  0  0  0  4           0  0  0
    7.4557    4.1079    2.7392 C   0  0  0  0  0  4           0  0  0
   -4.1740   -2.9409    0.1928 C   0  0  0  0  0  4           0  0  0
   -5.1583   -5.0250   -1.3657 C   0  0  0  0  0  4           0  0  0
    3.4499    3.2396    1.8982 C   0  0  0  0  0  4           0  0  0
    1.7133    2.4706    0.4234 C   0  0  0  0  0  4           0  0  0
   -5.2252   -2.6980   -0.6908 C   0  0  0  0  0  4           0  0  0
   -5.7135   -3.7462   -1.4720 C   0  0  0  0  0  4           0  0  0
    2.3838    3.5132    1.0468 C   0  0  0  0  0  4           0  0  0
   -3.6615   -1.8343    1.0316 C   0  0  0  0  0  4           0  0  0
    1.4663    0.0000   -0.0000 C   0  0  0  0  0  4           0  0  0
   -2.0707    0.0224    1.3564 C   0  0  0  0  0  4           0  0  0
   -2.0334   -1.1745   -0.7953 C   0  0  0  0  0  4           0  0  0
   -0.5423    0.0000    1.3718 C   0  0  0  0  0  4           0  0  0
   -0.5050   -1.1697   -0.7404 C   0  0  0  0  0  4           0  0  0
  1 10  1  0     0  0
  2 11  1  0     0  0
  2 12  1  0     0  0
  3 13  1  0     0  0
  4 24  2  0     0  0
  5 11  2  0     0  0
  5 16  1  0     0  0
  6 14  1  0     0  0
  6 15  2  0     0  0
  7 11  1  0     0  0
  7 14  1  0     0  0
  8 24  1  0     0  0
  8 26  1  0     0  0
  8 27  1  0     0  0
  9 25  1  0     0  0
  9 28  1  0     0  0
  9 29  1  0     0  0
 10 13  2  0     0  0
 10 18  1  0     0  0
 12 16  2  0     0  0
 13 17  1  0     0  0
 14 19  2  0     0  0
 15 20  1  0     0  0
 15 25  1  0     0  0
 17 21  2  0     0  0
 17 24  1  0     0  0
 18 22  2  0     0  0
 19 23  1  0     0  0
 20 23  2  0     0  0
 21 22  1  0     0  0
 26 28  1  0     0  0
 27 29  1  0     0  0
M  END
> <standard_type>
pIC50

> <# Confs.>
25

> <canonical_smiles>
O=C(C1=CC=CC(Cl)=C1F)N(CC2)CCN2CC3=NC(NC4=NC=CS4)=CC=C3

> <standard_relation>
=

> <Publication_ID>
nan

> <predicted_activity_value>
6.292429823902063

> <actual_activity_value>
6.356547323513812

> <Compound>
16

> <standard_units>
nM

> hash
4781207289351067986

$$$$
16_
XXILIB    08252103493D 0   0.00000     0.00000

 29 32  0     1  0            999 V2000
   -6.9598   -3.4691   -2.6266 Cl  0  0  0  0  0  1           0  0  0
    4.3282   -3.9135   -5.8336 S   0  0  0  0  0  2           0  0  0
   -5.7457   -1.4799   -0.8086 F   0  0  0  0  0  1           0  0  0
   -4.1920   -1.6530    2.1281 O   0  0  0  0  0  2           0  0  0
    2.5676   -2.0434   -5.9453 N   0  0  0  0  0  3           0  0  0
    2.4104   -1.2115   -1.9022 N   0  0  0  0  0  3           0  0  0
    3.2815   -2.4971   -3.7490 N   0  0  0  0  0  3           0  0  0
   -2.6075   -1.0680    0.5484 N   0  0  2  0  0  3           0  0  0
    0.0000    0.0000    0.0000 N   0  0  2  0  0  3           0  0  0
   -5.6815   -3.7451   -1.5070 C   0  0  0  0  0  4           0  0  0
    3.3106   -2.7167   -5.0847 C   0  0  0  0  0  4           0  0  0
    3.7266   -3.4787   -7.3721 C   0  0  0  0  0  4           0  0  0
   -5.2093   -2.7060   -0.7097 C   0  0  0  0  0  4           0  0  0
    3.0003   -1.2623   -3.1270 C   0  0  0  0  0  4           0  0  0
    2.1380    0.0000   -1.3533 C   0  0  0  0  0  4           0  0  0
    2.8033   -2.4697   -7.2364 C   0  0  0  0  0  4           0  0  0
   -4.1740   -2.9409    0.1928 C   0  0  0  0  0  4           0  0  0
   -5.1160   -5.0173   -1.4018 C   0  0  0  0  0  4           0  0  0
    3.3008   -0.0930   -3.8287 C   0  0  0  0  0  4           0  0  0
    2.4233    1.1969   -1.9989 C   0  0  0  0  0  4           0  0  0
   -3.5957   -4.2053    0.3024 C   0  0  0  0  0  4           0  0  0
   -4.0736   -5.2437   -0.4979 C   0  0  0  0  0  4           0  0  0
    3.0129    1.1410   -3.2536 C   0  0  0  0  0  4           0  0  0
   -3.6615   -1.8343    1.0316 C   0  0  0  0  0  4           0  0  0
    1.4663   -0.0000   -0.0000 C   0  0  0  0  0  4           0  0  0
   -2.0707    0.0224    1.3564 C   0  0  0  0  0  4           0  0  0
   -2.0334   -1.1745   -0.7953 C   0  0  0  0  0  4           0  0  0
   -0.5423    0.0000    1.3718 C   0  0  0  0  0  4           0  0  0
   -0.5050   -1.1697   -0.7404 C   0  0  0  0  0  4           0  0  0
  1 10  1  0     0  0
  2 11  1  0     0  0
  2 12  1  0     0  0
  3 13  1  0     0  0
  4 24  2  0     0  0
  5 11  2  0     0  0
  5 16  1  0     0  0
  6 14  1  0     0  0
  6 15  2  0     0  0
  7 11  1  0     0  0
  7 14  1  0     0  0
  8 24  1  0     0  0
  8 26  1  0     0  0
  8 27  1  0     0  0
  9 25  1  0     0  0
  9 28  1  0     0  0
  9 29  1  0     0  0
 10 13  2  0     0  0
 10 18  1  0     0  0
 12 16  2  0     0  0
 13 17  1  0     0  0
 14 19  2  0     0  0
 15 20  1  0     0  0
 15 25  1  0     0  0
 17 21  2  0     0  0
 17 24  1  0     0  0
 18 22  2  0     0  0
 19 23  1  0     0  0
 20 23  2  0     0  0
 21 22  1  0     0  0
 26 28  1  0     0  0
 27 29  1  0     0  0
M  END
> <standard_type>
pIC50

> <# Confs.>
25

> <canonical_smiles>
O=C(C1=CC=CC(Cl)=C1F)N(CC2)CCN2CC3=NC(NC4=NC=CS4)=CC=C3

> <standard_relation>
=

> <Publication_ID>
nan

> <predicted_activity_value>
6.292429823902063

> <actual_activity_value>
6.356547323513812

> <Compound>
16

> <standard_units>
nM

> hash
4781207289351067986

$$$$
16_
XXILIB    08252103493D 0   0.00000     0.00000

 29 32  0     1  0            999 V2000
   -6.9598   -3.4691   -2.6266 Cl  0  0  0  0  0  1           0  0  0
    6.8529    2.5938    4.6684 S   0  0  0  0  0  2           0  0  0
   -5.7457   -1.4799   -0.8086 F   0  0  0  0  0  1           0  0  0
   -4.1920   -1.6530    2.1281 O   0  0  0  0  0  2           0  0  0
    6.3952    3.3668    2.2596 N   0  0  0  0  0  3           0  0  0
    3.1777    0.8892    1.5025 N   0  0  0  0  0  3           0  0  0
    4.9255    1.6716    2.9706 N   0  0  0  0  0  3           0  0  0
   -2.6075   -1.0680    0.5484 N   0  0  2  0  0  3           0  0  0
    0.0000    0.0000    0.0000 N   0  0  2  0  0  3           0  0  0
   -5.6815   -3.7451   -1.5070 C   0  0  0  0  0  4           0  0  0
    5.9619    2.5185    3.1753 C   0  0  0  0  0  4           0  0  0
    7.8458    3.8269    4.0268 C   0  0  0  0  0  4           0  0  0
   -5.2093   -2.7060   -0.7097 C   0  0  0  0  0  4           0  0  0
    3.8245    1.9132    2.1221 C   0  0  0  0  0  4           0  0  0
    2.1380    1.1720    0.6767 C   0  0  0  0  0  4           0  0  0
    7.4557    4.1079    2.7392 C   0  0  0  0  0  4           0  0  0
   -4.1740   -2.9409    0.1928 C   0  0  0  0  0  4           0  0  0
   -5.1160   -5.0173   -1.4018 C   0  0  0  0  0  4           0  0  0
    3.4499    3.2396    1.8982 C   0  0  0  0  0  4           0  0  0
    1.7133    2.4706    0.4234 C   0  0  0  0  0  4           0  0  0
   -3.5957   -4.2053    0.3024 C   0  0  0  0  0  4           0  0  0
   -4.0736   -5.2437   -0.4979 C   0  0  0  0  0  4           0  0  0
    2.3838    3.5132    1.0468 C   0  0  0  0  0  4           0  0  0
   -3.6615   -1.8343    1.0316 C   0  0  0  0  0  4           0  0  0
    1.4663    0.0000   -0.0000 C   0  0  0  0  0  4           0  0  0
   -2.0707    0.0224    1.3564 C   0  0  0  0  0  4           0  0  0
   -2.0334   -1.1745   -0.7953 C   0  0  0  0  0  4           0  0  0
   -0.5423    0.0000    1.3718 C   0  0  0  0  0  4           0  0  0
   -0.5050   -1.1697   -0.7404 C   0  0  0  0  0  4           0  0  0
  1 10  1  0     0  0
  2 11  1  0     0  0
  2 12  1  0     0  0
  3 13  1  0     0  0
  4 24  2  0     0  0
  5 11  2  0     0  0
  5 16  1  0     0  0
  6 14  1  0     0  0
  6 15  2  0     0  0
  7 11  1  0     0  0
  7 14  1  0     0  0
  8 24  1  0     0  0
  8 26  1  0     0  0
  8 27  1  0     0  0
  9 25  1  0     0  0
  9 28  1  0     0  0
  9 29  1  0     0  0
 10 13  2  0     0  0
 10 18  1  0     0  0
 12 16  2  0     0  0
 13 17  1  0     0  0
 14 19  2  0     0  0
 15 20  1  0     0  0
 15 25  1  0     0  0
 17 21  2  0     0  0
 17 24  1  0     0  0
 18 22  2  0     0  0
 19 23  1  0     0  0
 20 23  2  0     0  0
 21 22  1  0     0  0
 26 28  1  0     0  0
 27 29  1  0     0  0
M  END
> <standard_type>
pIC50

> <# Confs.>
25

> <canonical_smiles>
O=C(C1=CC=CC(Cl)=C1F)N(CC2)CCN2CC3=NC(NC4=NC=CS4)=CC=C3

> <standard_relation>
=

> <Publication_ID>
nan

> <predicted_activity_value>
6.292429823902063

> <actual_activity_value>
6.356547323513812

> <Compound>
16

> <standard_units>
nM

> hash
4781207289351067986

$$$$
16_
XXILIB    08252103493D 0   0.00000     0.00000

 29 32  0     1  0            999 V2000
   -3.4356   -6.8346   -0.3391 Cl  0  0  0  0  0  1           0  0  0
    4.3820    3.0722    6.2927 S   0  0  0  0  0  2           0  0  0
   -2.6156   -4.4307    1.1725 F   0  0  0  0  0  1           0  0  0
   -4.1920   -1.6530    2.1281 O   0  0  0  0  0  2           0  0  0
    5.5355    2.8513    4.0057 N   0  0  0  0  0  3           0  0  0
    2.4104    1.0416    2.0003 N   0  0  0  0  0  3           0  0  0
    3.3547    1.9667    4.0189 N   0  0  0  0  0  3           0  0  0
   -2.6075   -1.0680    0.5484 N   0  0  2  0  0  3           0  0  0
    0.0000    0.0000    0.0000 N   0  0  2  0  0  3           0  0  0
   -4.1111   -5.2567   -0.4719 C   0  0  0  0  0  4           0  0  0
    4.4009    2.5765    4.6245 C   0  0  0  0  0  4           0  0  0
    5.9712    3.6803    6.1417 C   0  0  0  0  0  4           0  0  0
   -3.6193   -4.2140    0.3086 C   0  0  0  0  0  4           0  0  0
    3.0292    2.0645    2.6495 C   0  0  0  0  0  4           0  0  0
    2.1380    1.1720    0.6767 C   0  0  0  0  0  4           0  0  0
    6.4213    3.4768    4.8591 C   0  0  0  0  0  4           0  0  0
   -4.1740   -2.9409    0.1928 C   0  0  0  0  0  4           0  0  0
   -5.1583   -5.0250   -1.3657 C   0  0  0  0  0  4           0  0  0
    3.4064    3.2238    1.9687 C   0  0  0  0  0  4           0  0  0
    2.4797    2.3053   -0.0511 C   0  0  0  0  0  4           0  0  0
   -5.2252   -2.6980   -0.6908 C   0  0  0  0  0  4           0  0  0
   -5.7135   -3.7462   -1.4720 C   0  0  0  0  0  4           0  0  0
    3.1225    3.3411    0.6115 C   0  0  0  0  0  4           0  0  0
   -3.6615   -1.8343    1.0316 C   0  0  0  0  0  4           0  0  0
    1.4663   -0.0000    0.0000 C   0  0  0  0  0  4           0  0  0
   -2.0707    0.0224    1.3564 C   0  0  0  0  0  4           0  0  0
   -2.0334   -1.1745   -0.7953 C   0  0  0  0  0  4           0  0  0
   -0.5423    0.0000    1.3718 C   0  0  0  0  0  4           0  0  0
   -0.5050   -1.1697   -0.7404 C   0  0  0  0  0  4           0  0  0
  1 10  1  0     0  0
  2 11  1  0     0  0
  2 12  1  0     0  0
  3 13  1  0     0  0
  4 24  2  0     0  0
  5 11  2  0     0  0
  5 16  1  0     0  0
  6 14  1  0     0  0
  6 15  2  0     0  0
  7 11  1  0     0  0
  7 14  1  0     0  0
  8 24  1  0     0  0
  8 26  1  0     0  0
  8 27  1  0     0  0
  9 25  1  0     0  0
  9 28  1  0     0  0
  9 29  1  0     0  0
 10 13  2  0     0  0
 10 18  1  0     0  0
 12 16  2  0     0  0
 13 17  1  0     0  0
 14 19  2  0     0  0
 15 20  1  0     0  0
 15 25  1  0     0  0
 17 21  2  0     0  0
 17 24  1  0     0  0
 18 22  2  0     0  0
 19 23  1  0     0  0
 20 23  2  0     0  0
 21 22  1  0     0  0
 26 28  1  0     0  0
 27 29  1  0     0  0
M  END
> <standard_type>
pIC50

> <# Confs.>
25

> <canonical_smiles>
O=C(C1=CC=CC(Cl)=C1F)N(CC2)CCN2CC3=NC(NC4=NC=CS4)=CC=C3

> <standard_relation>
=

> <Publication_ID>
nan

> <predicted_activity_value>
6.292429823902063

> <actual_activity_value>
6.356547323513812

> <Compound>
16

> <standard_units>
nM

> hash
4781207289351067986

$$$$
16_
XXILIB    08252103493D 0   0.00000     0.00000

 29 32  0     1  0            999 V2000
   -6.9598   -3.4691   -2.6266 Cl  0  0  0  0  0  1           0  0  0
    4.3820    3.0722    6.2927 S   0  0  0  0  0  2           0  0  0
   -5.7457   -1.4799   -0.8086 F   0  0  0  0  0  1           0  0  0
   -4.1920   -1.6530    2.1281 O   0  0  0  0  0  2           0  0  0
    5.5355    2.8513    4.0057 N   0  0  0  0  0  3           0  0  0
    2.4104    1.0416    2.0003 N   0  0  0  0  0  3           0  0  0
    3.3547    1.9667    4.0189 N   0  0  0  0  0  3           0  0  0
   -2.6075   -1.0680    0.5484 N   0  0  2  0  0  3           0  0  0
    0.0000    0.0000    0.0000 N   0  0  2  0  0  3           0  0  0
   -5.6815   -3.7451   -1.5070 C   0  0  0  0  0  4           0  0  0
    4.4009    2.5765    4.6245 C   0  0  0  0  0  4           0  0  0
    5.9712    3.6803    6.1417 C   0  0  0  0  0  4           0  0  0
   -5.2093   -2.7060   -0.7097 C   0  0  0  0  0  4           0  0  0
    3.0292    2.0645    2.6495 C   0  0  0  0  0  4           0  0  0
    2.1380    1.1720    0.6767 C   0  0  0  0  0  4           0  0  0
    6.4213    3.4768    4.8591 C   0  0  0  0  0  4           0  0  0
   -4.1740   -2.9409    0.1928 C   0  0  0  0  0  4           0  0  0
   -5.1160   -5.0173   -1.4018 C   0  0  0  0  0  4           0  0  0
    3.4064    3.2238    1.9687 C   0  0  0  0  0  4           0  0  0
    2.4797    2.3053   -0.0511 C   0  0  0  0  0  4           0  0  0
   -3.5957   -4.2053    0.3024 C   0  0  0  0  0  4           0  0  0
   -4.0736   -5.2437   -0.4979 C   0  0  0  0  0  4           0  0  0
    3.1225    3.3411    0.6115 C   0  0  0  0  0  4           0  0  0
   -3.6615   -1.8343    1.0316 C   0  0  0  0  0  4           0  0  0
    1.4663   -0.0000    0.0000 C   0  0  0  0  0  4           0  0  0
   -2.0707    0.0224    1.3564 C   0  0  0  0  0  4           0  0  0
   -2.0334   -1.1745   -0.7953 C   0  0  0  0  0  4           0  0  0
   -0.5423    0.0000    1.3718 C   0  0  0  0  0  4           0  0  0
   -0.5050   -1.1697   -0.7404 C   0  0  0  0  0  4           0  0  0
  1 10  1  0     0  0
  2 11  1  0     0  0
  2 12  1  0     0  0
  3 13  1  0     0  0
  4 24  2  0     0  0
  5 11  2  0     0  0
  5 16  1  0     0  0
  6 14  1  0     0  0
  6 15  2  0     0  0
  7 11  1  0     0  0
  7 14  1  0     0  0
  8 24  1  0     0  0
  8 26  1  0     0  0
  8 27  1  0     0  0
  9 25  1  0     0  0
  9 28  1  0     0  0
  9 29  1  0     0  0
 10 13  2  0     0  0
 10 18  1  0     0  0
 12 16  2  0     0  0
 13 17  1  0     0  0
 14 19  2  0     0  0
 15 20  1  0     0  0
 15 25  1  0     0  0
 17 21  2  0     0  0
 17 24  1  0     0  0
 18 22  2  0     0  0
 19 23  1  0     0  0
 20 23  2  0     0  0
 21 22  1  0     0  0
 26 28  1  0     0  0
 27 29  1  0     0  0
M  END
> <standard_type>
pIC50

> <# Confs.>
25

> <canonical_smiles>
O=C(C1=CC=CC(Cl)=C1F)N(CC2)CCN2CC3=NC(NC4=NC=CS4)=CC=C3

> <standard_relation>
=

> <Publication_ID>
nan

> <predicted_activity_value>
6.292429823902063

> <actual_activity_value>
6.356547323513812

> <Compound>
16

> <standard_units>
nM

> hash
4781207289351067986

$$$$
16_
XXILIB    08252103493D 0   0.00000     0.00000

 29 32  0     1  0            999 V2000
   -3.4356   -6.8346   -0.3391 Cl  0  0  0  0  0  1           0  0  0
    4.4832    3.0282    6.2655 S   0  0  0  0  0  2           0  0  0
   -2.6156   -4.4307    1.1725 F   0  0  0  0  0  1           0  0  0
   -4.1920   -1.6530    2.1281 O   0  0  0  0  0  2           0  0  0
    2.6822    4.0929    4.7713 N   0  0  0  0  0  3           0  0  0
    2.4104    1.0416    2.0003 N   0  0  0  0  0  3           0  0  0
    3.3547    1.9667    4.0189 N   0  0  0  0  0  3           0  0  0
   -2.6075   -1.0680    0.5484 N   0  0  2  0  0  3           0  0  0
    0.0000    0.0000    0.0000 N   0  0  2  0  0  3           0  0  0
   -4.1111   -5.2567   -0.4719 C   0  0  0  0  0  4           0  0  0
    3.4197    3.0028    4.8881 C   0  0  0  0  0  4           0  0  0
    3.8998    4.5735    6.7015 C   0  0  0  0  0  4           0  0  0
   -3.6193   -4.2140    0.3086 C   0  0  0  0  0  4           0  0  0
    3.0292    2.0645    2.6495 C   0  0  0  0  0  4           0  0  0
    2.1380    1.1720    0.6767 C   0  0  0  0  0  4           0  0  0
    2.9494    4.9787    5.7951 C   0  0  0  0  0  4           0  0  0
   -4.1740   -2.9409    0.1928 C   0  0  0  0  0  4           0  0  0
   -5.1583   -5.0250   -1.3657 C   0  0  0  0  0  4           0  0  0
    3.4064    3.2238    1.9687 C   0  0  0  0  0  4           0  0  0
    2.4797    2.3053   -0.0511 C   0  0  0  0  0  4           0  0  0
   -5.2252   -2.6980   -0.6908 C   0  0  0  0  0  4           0  0  0
   -5.7135   -3.7462   -1.4720 C   0  0  0  0  0  4           0  0  0
    3.1225    3.3411    0.6115 C   0  0  0  0  0  4           0  0  0
   -3.6615   -1.8343    1.0316 C   0  0  0  0  0  4           0  0  0
    1.4663   -0.0000    0.0000 C   0  0  0  0  0  4           0  0  0
   -2.0707    0.0224    1.3564 C   0  0  0  0  0  4           0  0  0
   -2.0334   -1.1745   -0.7953 C   0  0  0  0  0  4           0  0  0
   -0.5423    0.0000    1.3718 C   0  0  0  0  0  4           0  0  0
   -0.5050   -1.1697   -0.7404 C   0  0  0  0  0  4           0  0  0
  1 10  1  0     0  0
  2 11  1  0     0  0
  2 12  1  0     0  0
  3 13  1  0     0  0
  4 24  2  0     0  0
  5 11  2  0     0  0
  5 16  1  0     0  0
  6 14  1  0     0  0
  6 15  2  0     0  0
  7 11  1  0     0  0
  7 14  1  0     0  0
  8 24  1  0     0  0
  8 26  1  0     0  0
  8 27  1  0     0  0
  9 25  1  0     0  0
  9 28  1  0     0  0
  9 29  1  0     0  0
 10 13  2  0     0  0
 10 18  1  0     0  0
 12 16  2  0     0  0
 13 17  1  0     0  0
 14 19  2  0     0  0
 15 20  1  0     0  0
 15 25  1  0     0  0
 17 21  2  0     0  0
 17 24  1  0     0  0
 18 22  2  0     0  0
 19 23  1  0     0  0
 20 23  2  0     0  0
 21 22  1  0     0  0
 26 28  1  0     0  0
 27 29  1  0     0  0
M  END
> <standard_type>
pIC50

> <# Confs.>
25

> <canonical_smiles>
O=C(C1=CC=CC(Cl)=C1F)N(CC2)CCN2CC3=NC(NC4=NC=CS4)=CC=C3

> <standard_relation>
=

> <Publication_ID>
nan

> <predicted_activity_value>
6.292429823902063

> <actual_activity_value>
6.356547323513812

> <Compound>
16

> <standard_units>
nM

> hash
4781207289351067986

$$$$
16_
XXILIB    08252103493D 0   0.00000     0.00000

 29 32  0     1  0            999 V2000
   -3.4356   -6.8346   -0.3391 Cl  0  0  0  0  0  1           0  0  0
    3.6285   -3.7948   -1.3735 S   0  0  0  0  0  2           0  0  0
   -2.6156   -4.4307    1.1725 F   0  0  0  0  0  1           0  0  0
   -4.1920   -1.6530    2.1281 O   0  0  0  0  0  2           0  0  0
    3.8214   -4.7877   -3.7371 N   0  0  0  0  0  3           0  0  0
    2.4104   -1.2115   -1.9022 N   0  0  0  0  0  3           0  0  0
    3.2815   -2.4971   -3.7490 N   0  0  0  0  0  3           0  0  0
   -2.6075   -1.0680    0.5484 N   0  0  2  0  0  3           0  0  0
    0.0000    0.0000    0.0000 N   0  0  2  0  0  3           0  0  0
   -4.1111   -5.2567   -0.4719 C   0  0  0  0  0  4           0  0  0
    3.5659   -3.6548   -3.1071 C   0  0  0  0  0  4           0  0  0
    4.0223   -5.4515   -1.5104 C   0  0  0  0  0  4           0  0  0
   -3.6193   -4.2140    0.3086 C   0  0  0  0  0  4           0  0  0
    3.0003   -1.2623   -3.1270 C   0  0  0  0  0  4           0  0  0
    2.1380    0.0000   -1.3533 C   0  0  0  0  0  4           0  0  0
    4.0823   -5.8016   -2.8381 C   0  0  0  0  0  4           0  0  0
   -4.1740   -2.9409    0.1928 C   0  0  0  0  0  4           0  0  0
   -5.1583   -5.0250   -1.3657 C   0  0  0  0  0  4           0  0  0
    3.3008   -0.0930   -3.8287 C   0  0  0  0  0  4           0  0  0
    2.4233    1.1969   -1.9989 C   0  0  0  0  0  4           0  0  0
   -5.2252   -2.6980   -0.6908 C   0  0  0  0  0  4           0  0  0
   -5.7135   -3.7462   -1.4720 C   0  0  0  0  0  4           0  0  0
    3.0129    1.1410   -3.2536 C   0  0  0  0  0  4           0  0  0
   -3.6615   -1.8343    1.0316 C   0  0  0  0  0  4           0  0  0
    1.4663   -0.0000   -0.0000 C   0  0  0  0  0  4           0  0  0
   -2.0707    0.0224    1.3564 C   0  0  0  0  0  4           0  0  0
   -2.0334   -1.1745   -0.7953 C   0  0  0  0  0  4           0  0  0
   -0.5423    0.0000    1.3718 C   0  0  0  0  0  4           0  0  0
   -0.5050   -1.1697   -0.7404 C   0  0  0  0  0  4           0  0  0
  1 10  1  0     0  0
  2 11  1  0     0  0
  2 12  1  0     0  0
  3 13  1  0     0  0
  4 24  2  0     0  0
  5 11  2  0     0  0
  5 16  1  0     0  0
  6 14  1  0     0  0
  6 15  2  0     0  0
  7 11  1  0     0  0
  7 14  1  0     0  0
  8 24  1  0     0  0
  8 26  1  0     0  0
  8 27  1  0     0  0
  9 25  1  0     0  0
  9 28  1  0     0  0
  9 29  1  0     0  0
 10 13  2  0     0  0
 10 18  1  0     0  0
 12 16  2  0     0  0
 13 17  1  0     0  0
 14 19  2  0     0  0
 15 20  1  0     0  0
 15 25  1  0     0  0
 17 21  2  0     0  0
 17 24  1  0     0  0
 18 22  2  0     0  0
 19 23  1  0     0  0
 20 23  2  0     0  0
 21 22  1  0     0  0
 26 28  1  0     0  0
 27 29  1  0     0  0
M  END
> <standard_type>
pIC50

> <# Confs.>
25

> <canonical_smiles>
O=C(C1=CC=CC(Cl)=C1F)N(CC2)CCN2CC3=NC(NC4=NC=CS4)=CC=C3

> <standard_relation>
=

> <Publication_ID>
nan

> <predicted_activity_value>
6.292429823902063

> <actual_activity_value>
6.356547323513812

> <Compound>
16

> <standard_units>
nM

> hash
4781207289351067986

$$$$
16_
XXILIB    08252103493D 0   0.00000     0.00000

 29 32  0     1  0            999 V2000
   -3.4356   -6.8346   -0.3391 Cl  0  0  0  0  0  1           0  0  0
    1.1748   -3.7574   -2.5569 S   0  0  0  0  0  2           0  0  0
   -2.6156   -4.4307    1.1725 F   0  0  0  0  0  1           0  0  0
   -4.1920   -1.6530    2.1281 O   0  0  0  0  0  2           0  0  0
    2.8778   -4.7727   -4.1935 N   0  0  0  0  0  3           0  0  0
    2.4104   -1.2115   -1.9022 N   0  0  0  0  0  3           0  0  0
    3.2815   -2.4971   -3.7490 N   0  0  0  0  0  3           0  0  0
   -2.6075   -1.0680    0.5484 N   0  0  2  0  0  3           0  0  0
    0.0000    0.0000    0.0000 N   0  0  2  0  0  3           0  0  0
   -4.1111   -5.2567   -0.4719 C   0  0  0  0  0  4           0  0  0
    2.5736   -3.6396   -3.5857 C   0  0  0  0  0  4           0  0  0
    1.0012   -5.4076   -2.9629 C   0  0  0  0  0  4           0  0  0
   -3.6193   -4.2140    0.3086 C   0  0  0  0  0  4           0  0  0
    3.0003   -1.2623   -3.1270 C   0  0  0  0  0  4           0  0  0
    2.1380    0.0000   -1.3533 C   0  0  0  0  0  4           0  0  0
    1.9938   -5.7719   -3.8409 C   0  0  0  0  0  4           0  0  0
   -4.1740   -2.9409    0.1928 C   0  0  0  0  0  4           0  0  0
   -5.1583   -5.0250   -1.3657 C   0  0  0  0  0  4           0  0  0
    3.3008   -0.0930   -3.8287 C   0  0  0  0  0  4           0  0  0
    2.4233    1.1969   -1.9989 C   0  0  0  0  0  4           0  0  0
   -5.2252   -2.6980   -0.6908 C   0  0  0  0  0  4           0  0  0
   -5.7135   -3.7462   -1.4720 C   0  0  0  0  0  4           0  0  0
    3.0129    1.1410   -3.2536 C   0  0  0  0  0  4           0  0  0
   -3.6615   -1.8343    1.0316 C   0  0  0  0  0  4           0  0  0
    1.4663   -0.0000   -0.0000 C   0  0  0  0  0  4           0  0  0
   -2.0707    0.0224    1.3564 C   0  0  0  0  0  4           0  0  0
   -2.0334   -1.1745   -0.7953 C   0  0  0  0  0  4           0  0  0
   -0.5423    0.0000    1.3718 C   0  0  0  0  0  4           0  0  0
   -0.5050   -1.1697   -0.7404 C   0  0  0  0  0  4           0  0  0
  1 10  1  0     0  0
  2 11  1  0     0  0
  2 12  1  0     0  0
  3 13  1  0     0  0
  4 24  2  0     0  0
  5 11  2  0     0  0
  5 16  1  0     0  0
  6 14  1  0     0  0
  6 15  2  0     0  0
  7 11  1  0     0  0
  7 14  1  0     0  0
  8 24  1  0     0  0
  8 26  1  0     0  0
  8 27  1  0     0  0
  9 25  1  0     0  0
  9 28  1  0     0  0
  9 29  1  0     0  0
 10 13  2  0     0  0
 10 18  1  0     0  0
 12 16  2  0     0  0
 13 17  1  0     0  0
 14 19  2  0     0  0
 15 20  1  0     0  0
 15 25  1  0     0  0
 17 21  2  0     0  0
 17 24  1  0     0  0
 18 22  2  0     0  0
 19 23  1  0     0  0
 20 23  2  0     0  0
 21 22  1  0     0  0
 26 28  1  0     0  0
 27 29  1  0     0  0
M  END
> <standard_type>
pIC50

> <# Confs.>
25

> <canonical_smiles>
O=C(C1=CC=CC(Cl)=C1F)N(CC2)CCN2CC3=NC(NC4=NC=CS4)=CC=C3

> <standard_relation>
=

> <Publication_ID>
nan

> <predicted_activity_value>
6.292429823902063

> <actual_activity_value>
6.356547323513812

> <Compound>
16

> <standard_units>
nM

> hash
4781207289351067986

$$$$
16_
XXILIB    08252103493D 0   0.00000     0.00000

 29 32  0     1  0            999 V2000
   -6.9598   -3.4691   -2.6266 Cl  0  0  0  0  0  1           0  0  0
    3.6285   -3.7948   -1.3735 S   0  0  0  0  0  2           0  0  0
   -5.7457   -1.4799   -0.8086 F   0  0  0  0  0  1           0  0  0
   -4.1920   -1.6530    2.1281 O   0  0  0  0  0  2           0  0  0
    3.8214   -4.7877   -3.7371 N   0  0  0  0  0  3           0  0  0
    2.4104   -1.2115   -1.9022 N   0  0  0  0  0  3           0  0  0
    3.2815   -2.4971   -3.7490 N   0  0  0  0  0  3           0  0  0
   -2.6075   -1.0680    0.5484 N   0  0  2  0  0  3           0  0  0
    0.0000    0.0000    0.0000 N   0  0  2  0  0  3           0  0  0
   -5.6815   -3.7451   -1.5070 C   0  0  0  0  0  4           0  0  0
    3.5659   -3.6548   -3.1071 C   0  0  0  0  0  4           0  0  0
    4.0223   -5.4515   -1.5104 C   0  0  0  0  0  4           0  0  0
   -5.2093   -2.7060   -0.7097 C   0  0  0  0  0  4           0  0  0
    3.0003   -1.2623   -3.1270 C   0  0  0  0  0  4           0  0  0
    2.1380    0.0000   -1.3533 C   0  0  0  0  0  4           0  0  0
    4.0823   -5.8016   -2.8381 C   0  0  0  0  0  4           0  0  0
   -4.1740   -2.9409    0.1928 C   0  0  0  0  0  4           0  0  0
   -5.1160   -5.0173   -1.4018 C   0  0  0  0  0  4           0  0  0
    3.3008   -0.0930   -3.8287 C   0  0  0  0  0  4           0  0  0
    2.4233    1.1969   -1.9989 C   0  0  0  0  0  4           0  0  0
   -3.5957   -4.2053    0.3024 C   0  0  0  0  0  4           0  0  0
   -4.0736   -5.2437   -0.4979 C   0  0  0  0  0  4           0  0  0
    3.0129    1.1410   -3.2536 C   0  0  0  0  0  4           0  0  0
   -3.6615   -1.8343    1.0316 C   0  0  0  0  0  4           0  0  0
    1.4663   -0.0000   -0.0000 C   0  0  0  0  0  4           0  0  0
   -2.0707    0.0224    1.3564 C   0  0  0  0  0  4           0  0  0
   -2.0334   -1.1745   -0.7953 C   0  0  0  0  0  4           0  0  0
   -0.5423    0.0000    1.3718 C   0  0  0  0  0  4           0  0  0
   -0.5050   -1.1697   -0.7404 C   0  0  0  0  0  4           0  0  0
  1 10  1  0     0  0
  2 11  1  0     0  0
  2 12  1  0     0  0
  3 13  1  0     0  0
  4 24  2  0     0  0
  5 11  2  0     0  0
  5 16  1  0     0  0
  6 14  1  0     0  0
  6 15  2  0     0  0
  7 11  1  0     0  0
  7 14  1  0     0  0
  8 24  1  0     0  0
  8 26  1  0     0  0
  8 27  1  0     0  0
  9 25  1  0     0  0
  9 28  1  0     0  0
  9 29  1  0     0  0
 10 13  2  0     0  0
 10 18  1  0     0  0
 12 16  2  0     0  0
 13 17  1  0     0  0
 14 19  2  0     0  0
 15 20  1  0     0  0
 15 25  1  0     0  0
 17 21  2  0     0  0
 17 24  1  0     0  0
 18 22  2  0     0  0
 19 23  1  0     0  0
 20 23  2  0     0  0
 21 22  1  0     0  0
 26 28  1  0     0  0
 27 29  1  0     0  0
M  END
> <standard_type>
pIC50

> <# Confs.>
25

> <canonical_smiles>
O=C(C1=CC=CC(Cl)=C1F)N(CC2)CCN2CC3=NC(NC4=NC=CS4)=CC=C3

> <standard_relation>
=

> <Publication_ID>
nan

> <predicted_activity_value>
6.292429823902063

> <actual_activity_value>
6.356547323513812

> <Compound>
16

> <standard_units>
nM

> hash
4781207289351067986

$$$$
16_
XXILIB    08252103493D 0   0.00000     0.00000

 29 32  0     1  0            999 V2000
   -3.4356   -6.8346   -0.3391 Cl  0  0  0  0  0  1           0  0  0
    4.0043   -0.7825    3.7295 S   0  0  0  0  0  2           0  0  0
   -2.6156   -4.4307    1.1725 F   0  0  0  0  0  1           0  0  0
   -4.1920   -1.6530    2.1281 O   0  0  0  0  0  2           0  0  0
    6.1687    0.3763    4.4923 N   0  0  0  0  0  3           0  0  0
    3.1777    0.8892    1.5025 N   0  0  0  0  0  3           0  0  0
    4.9255    1.6716    2.9706 N   0  0  0  0  0  3           0  0  0
   -2.6075   -1.0680    0.5484 N   0  0  2  0  0  3           0  0  0
    0.0000    0.0000    0.0000 N   0  0  2  0  0  3           0  0  0
   -4.1111   -5.2567   -0.4719 C   0  0  0  0  0  4           0  0  0
    5.1172    0.5553    3.7124 C   0  0  0  0  0  4           0  0  0
    5.0010   -1.6121    4.8414 C   0  0  0  0  0  4           0  0  0
   -3.6193   -4.2140    0.3086 C   0  0  0  0  0  4           0  0  0
    3.8245    1.9132    2.1221 C   0  0  0  0  0  4           0  0  0
    2.1380    1.1720    0.6767 C   0  0  0  0  0  4           0  0  0
    6.1032   -0.8444    5.1325 C   0  0  0  0  0  4           0  0  0
   -4.1740   -2.9409    0.1928 C   0  0  0  0  0  4           0  0  0
   -5.1583   -5.0250   -1.3657 C   0  0  0  0  0  4           0  0  0
    3.4499    3.2396    1.8982 C   0  0  0  0  0  4           0  0  0
    1.7133    2.4706    0.4234 C   0  0  0  0  0  4           0  0  0
   -5.2252   -2.6980   -0.6908 C   0  0  0  0  0  4           0  0  0
   -5.7135   -3.7462   -1.4720 C   0  0  0  0  0  4           0  0  0
    2.3838    3.5132    1.0468 C   0  0  0  0  0  4           0  0  0
   -3.6615   -1.8343    1.0316 C   0  0  0  0  0  4           0  0  0
    1.4663    0.0000   -0.0000 C   0  0  0  0  0  4           0  0  0
   -2.0707    0.0224    1.3564 C   0  0  0  0  0  4           0  0  0
   -2.0334   -1.1745   -0.7953 C   0  0  0  0  0  4           0  0  0
   -0.5423    0.0000    1.3718 C   0  0  0  0  0  4           0  0  0
   -0.5050   -1.1697   -0.7404 C   0  0  0  0  0  4           0  0  0
  1 10  1  0     0  0
  2 11  1  0     0  0
  2 12  1  0     0  0
  3 13  1  0     0  0
  4 24  2  0     0  0
  5 11  2  0     0  0
  5 16  1  0     0  0
  6 14  1  0     0  0
  6 15  2  0     0  0
  7 11  1  0     0  0
  7 14  1  0     0  0
  8 24  1  0     0  0
  8 26  1  0     0  0
  8 27  1  0     0  0
  9 25  1  0     0  0
  9 28  1  0     0  0
  9 29  1  0     0  0
 10 13  2  0     0  0
 10 18  1  0     0  0
 12 16  2  0     0  0
 13 17  1  0     0  0
 14 19  2  0     0  0
 15 20  1  0     0  0
 15 25  1  0     0  0
 17 21  2  0     0  0
 17 24  1  0     0  0
 18 22  2  0     0  0
 19 23  1  0     0  0
 20 23  2  0     0  0
 21 22  1  0     0  0
 26 28  1  0     0  0
 27 29  1  0     0  0
M  END
> <standard_type>
pIC50

> <# Confs.>
25

> <canonical_smiles>
O=C(C1=CC=CC(Cl)=C1F)N(CC2)CCN2CC3=NC(NC4=NC=CS4)=CC=C3

> <standard_relation>
=

> <Publication_ID>
nan

> <predicted_activity_value>
6.292429823902063

> <actual_activity_value>
6.356547323513812

> <Compound>
16

> <standard_units>
nM

> hash
4781207289351067986

$$$$
16_
XXILIB    08252103493D 0   0.00000     0.00000

 29 32  0     1  0            999 V2000
   -3.4356   -6.8346   -0.3391 Cl  0  0  0  0  0  1           0  0  0
    5.6921   -0.5616    1.6023 S   0  0  0  0  0  2           0  0  0
   -2.6156   -4.4307    1.1725 F   0  0  0  0  0  1           0  0  0
   -4.1920   -1.6530    2.1281 O   0  0  0  0  0  2           0  0  0
    6.8183    0.4626    3.6740 N   0  0  0  0  0  3           0  0  0
    3.1777    0.8892    1.5025 N   0  0  0  0  0  3           0  0  0
    4.9255    1.6716    2.9706 N   0  0  0  0  0  3           0  0  0
   -2.6075   -1.0680    0.5484 N   0  0  2  0  0  3           0  0  0
    0.0000    0.0000    0.0000 N   0  0  2  0  0  3           0  0  0
   -4.1111   -5.2567   -0.4719 C   0  0  0  0  0  4           0  0  0
    5.7998    0.6447    2.8521 C   0  0  0  0  0  4           0  0  0
    7.0775   -1.3448    2.2231 C   0  0  0  0  0  4           0  0  0
   -3.6193   -4.2140    0.3086 C   0  0  0  0  0  4           0  0  0
    3.8245    1.9132    2.1221 C   0  0  0  0  0  4           0  0  0
    2.1380    1.1720    0.6767 C   0  0  0  0  0  4           0  0  0
    7.5383   -0.6609    3.3227 C   0  0  0  0  0  4           0  0  0
   -4.1740   -2.9409    0.1928 C   0  0  0  0  0  4           0  0  0
   -5.1583   -5.0250   -1.3657 C   0  0  0  0  0  4           0  0  0
    3.4499    3.2396    1.8982 C   0  0  0  0  0  4           0  0  0
    1.7133    2.4706    0.4234 C   0  0  0  0  0  4           0  0  0
   -5.2252   -2.6980   -0.6908 C   0  0  0  0  0  4           0  0  0
   -5.7135   -3.7462   -1.4720 C   0  0  0  0  0  4           0  0  0
    2.3838    3.5132    1.0468 C   0  0  0  0  0  4           0  0  0
   -3.6615   -1.8343    1.0316 C   0  0  0  0  0  4           0  0  0
    1.4663    0.0000   -0.0000 C   0  0  0  0  0  4           0  0  0
   -2.0707    0.0224    1.3564 C   0  0  0  0  0  4           0  0  0
   -2.0334   -1.1745   -0.7953 C   0  0  0  0  0  4           0  0  0
   -0.5423    0.0000    1.3718 C   0  0  0  0  0  4           0  0  0
   -0.5050   -1.1697   -0.7404 C   0  0  0  0  0  4           0  0  0
  1 10  1  0     0  0
  2 11  1  0     0  0
  2 12  1  0     0  0
  3 13  1  0     0  0
  4 24  2  0     0  0
  5 11  2  0     0  0
  5 16  1  0     0  0
  6 14  1  0     0  0
  6 15  2  0     0  0
  7 11  1  0     0  0
  7 14  1  0     0  0
  8 24  1  0     0  0
  8 26  1  0     0  0
  8 27  1  0     0  0
  9 25  1  0     0  0
  9 28  1  0     0  0
  9 29  1  0     0  0
 10 13  2  0     0  0
 10 18  1  0     0  0
 12 16  2  0     0  0
 13 17  1  0     0  0
 14 19  2  0     0  0
 15 20  1  0     0  0
 15 25  1  0     0  0
 17 21  2  0     0  0
 17 24  1  0     0  0
 18 22  2  0     0  0
 19 23  1  0     0  0
 20 23  2  0     0  0
 21 22  1  0     0  0
 26 28  1  0     0  0
 27 29  1  0     0  0
M  END
> <standard_type>
pIC50

> <# Confs.>
25

> <canonical_smiles>
O=C(C1=CC=CC(Cl)=C1F)N(CC2)CCN2CC3=NC(NC4=NC=CS4)=CC=C3

> <standard_relation>
=

> <Publication_ID>
nan

> <predicted_activity_value>
6.292429823902063

> <actual_activity_value>
6.356547323513812

> <Compound>
16

> <standard_units>
nM

> hash
4781207289351067986

$$$$
16_
XXILIB    08252103493D 0   0.00000     0.00000

 29 32  0     1  0            999 V2000
   -6.9598   -3.4691   -2.6266 Cl  0  0  0  0  0  1           0  0  0
    4.4832    3.0282    6.2655 S   0  0  0  0  0  2           0  0  0
   -5.7457   -1.4799   -0.8086 F   0  0  0  0  0  1           0  0  0
   -4.1920   -1.6530    2.1281 O   0  0  0  0  0  2           0  0  0
    2.6822    4.0929    4.7713 N   0  0  0  0  0  3           0  0  0
    2.4104    1.0416    2.0003 N   0  0  0  0  0  3           0  0  0
    3.3547    1.9667    4.0189 N   0  0  0  0  0  3           0  0  0
   -2.6075   -1.0680    0.5484 N   0  0  2  0  0  3           0  0  0
    0.0000    0.0000    0.0000 N   0  0  2  0  0  3           0  0  0
   -5.6815   -3.7451   -1.5070 C   0  0  0  0  0  4           0  0  0
    3.4197    3.0028    4.8881 C   0  0  0  0  0  4           0  0  0
    3.8998    4.5735    6.7015 C   0  0  0  0  0  4           0  0  0
   -5.2093   -2.7060   -0.7097 C   0  0  0  0  0  4           0  0  0
    3.0292    2.0645    2.6495 C   0  0  0  0  0  4           0  0  0
    2.1380    1.1720    0.6767 C   0  0  0  0  0  4           0  0  0
    2.9494    4.9787    5.7951 C   0  0  0  0  0  4           0  0  0
   -4.1740   -2.9409    0.1928 C   0  0  0  0  0  4           0  0  0
   -5.1160   -5.0173   -1.4018 C   0  0  0  0  0  4           0  0  0
    3.4064    3.2238    1.9687 C   0  0  0  0  0  4           0  0  0
    2.4797    2.3053   -0.0511 C   0  0  0  0  0  4           0  0  0
   -3.5957   -4.2053    0.3024 C   0  0  0  0  0  4           0  0  0
   -4.0736   -5.2437   -0.4979 C   0  0  0  0  0  4           0  0  0
    3.1225    3.3411    0.6115 C   0  0  0  0  0  4           0  0  0
   -3.6615   -1.8343    1.0316 C   0  0  0  0  0  4           0  0  0
    1.4663   -0.0000    0.0000 C   0  0  0  0  0  4           0  0  0
   -2.0707    0.0224    1.3564 C   0  0  0  0  0  4           0  0  0
   -2.0334   -1.1745   -0.7953 C   0  0  0  0  0  4           0  0  0
   -0.5423    0.0000    1.3718 C   0  0  0  0  0  4           0  0  0
   -0.5050   -1.1697   -0.7404 C   0  0  0  0  0  4           0  0  0
  1 10  1  0     0  0
  2 11  1  0     0  0
  2 12  1  0     0  0
  3 13  1  0     0  0
  4 24  2  0     0  0
  5 11  2  0     0  0
  5 16  1  0     0  0
  6 14  1  0     0  0
  6 15  2  0     0  0
  7 11  1  0     0  0
  7 14  1  0     0  0
  8 24  1  0     0  0
  8 26  1  0     0  0
  8 27  1  0     0  0
  9 25  1  0     0  0
  9 28  1  0     0  0
  9 29  1  0     0  0
 10 13  2  0     0  0
 10 18  1  0     0  0
 12 16  2  0     0  0
 13 17  1  0     0  0
 14 19  2  0     0  0
 15 20  1  0     0  0
 15 25  1  0     0  0
 17 21  2  0     0  0
 17 24  1  0     0  0
 18 22  2  0     0  0
 19 23  1  0     0  0
 20 23  2  0     0  0
 21 22  1  0     0  0
 26 28  1  0     0  0
 27 29  1  0     0  0
M  END
> <standard_type>
pIC50

> <# Confs.>
25

> <canonical_smiles>
O=C(C1=CC=CC(Cl)=C1F)N(CC2)CCN2CC3=NC(NC4=NC=CS4)=CC=C3

> <standard_relation>
=

> <Publication_ID>
nan

> <predicted_activity_value>
6.292429823902063

> <actual_activity_value>
6.356547323513812

> <Compound>
16

> <standard_units>
nM

> hash
4781207289351067986

$$$$
16_
XXILIB    08252103493D 0   0.00000     0.00000

 29 32  0     1  0            999 V2000
   -6.9598   -3.4691   -2.6266 Cl  0  0  0  0  0  1           0  0  0
    4.0043   -0.7825    3.7295 S   0  0  0  0  0  2           0  0  0
   -5.7457   -1.4799   -0.8086 F   0  0  0  0  0  1           0  0  0
   -4.1920   -1.6530    2.1281 O   0  0  0  0  0  2           0  0  0
    6.1687    0.3763    4.4923 N   0  0  0  0  0  3           0  0  0
    3.1777    0.8892    1.5025 N   0  0  0  0  0  3           0  0  0
    4.9255    1.6716    2.9706 N   0  0  0  0  0  3           0  0  0
   -2.6075   -1.0680    0.5484 N   0  0  2  0  0  3           0  0  0
    0.0000    0.0000    0.0000 N   0  0  2  0  0  3           0  0  0
   -5.6815   -3.7451   -1.5070 C   0  0  0  0  0  4           0  0  0
    5.1172    0.5553    3.7124 C   0  0  0  0  0  4           0  0  0
    5.0010   -1.6121    4.8414 C   0  0  0  0  0  4           0  0  0
   -5.2093   -2.7060   -0.7097 C   0  0  0  0  0  4           0  0  0
    3.8245    1.9132    2.1221 C   0  0  0  0  0  4           0  0  0
    2.1380    1.1720    0.6767 C   0  0  0  0  0  4           0  0  0
    6.1032   -0.8444    5.1325 C   0  0  0  0  0  4           0  0  0
   -4.1740   -2.9409    0.1928 C   0  0  0  0  0  4           0  0  0
   -5.1160   -5.0173   -1.4018 C   0  0  0  0  0  4           0  0  0
    3.4499    3.2396    1.8982 C   0  0  0  0  0  4           0  0  0
    1.7133    2.4706    0.4234 C   0  0  0  0  0  4           0  0  0
   -3.5957   -4.2053    0.3024 C   0  0  0  0  0  4           0  0  0
   -4.0736   -5.2437   -0.4979 C   0  0  0  0  0  4           0  0  0
    2.3838    3.5132    1.0468 C   0  0  0  0  0  4           0  0  0
   -3.6615   -1.8343    1.0316 C   0  0  0  0  0  4           0  0  0
    1.4663    0.0000   -0.0000 C   0  0  0  0  0  4           0  0  0
   -2.0707    0.0224    1.3564 C   0  0  0  0  0  4           0  0  0
   -2.0334   -1.1745   -0.7953 C   0  0  0  0  0  4           0  0  0
   -0.5423    0.0000    1.3718 C   0  0  0  0  0  4           0  0  0
   -0.5050   -1.1697   -0.7404 C   0  0  0  0  0  4           0  0  0
  1 10  1  0     0  0
  2 11  1  0     0  0
  2 12  1  0     0  0
  3 13  1  0     0  0
  4 24  2  0     0  0
  5 11  2  0     0  0
  5 16  1  0     0  0
  6 14  1  0     0  0
  6 15  2  0     0  0
  7 11  1  0     0  0
  7 14  1  0     0  0
  8 24  1  0     0  0
  8 26  1  0     0  0
  8 27  1  0     0  0
  9 25  1  0     0  0
  9 28  1  0     0  0
  9 29  1  0     0  0
 10 13  2  0     0  0
 10 18  1  0     0  0
 12 16  2  0     0  0
 13 17  1  0     0  0
 14 19  2  0     0  0
 15 20  1  0     0  0
 15 25  1  0     0  0
 17 21  2  0     0  0
 17 24  1  0     0  0
 18 22  2  0     0  0
 19 23  1  0     0  0
 20 23  2  0     0  0
 21 22  1  0     0  0
 26 28  1  0     0  0
 27 29  1  0     0  0
M  END
> <standard_type>
pIC50

> <# Confs.>
25

> <canonical_smiles>
O=C(C1=CC=CC(Cl)=C1F)N(CC2)CCN2CC3=NC(NC4=NC=CS4)=CC=C3

> <standard_relation>
=

> <Publication_ID>
nan

> <predicted_activity_value>
6.292429823902063

> <actual_activity_value>
6.356547323513812

> <Compound>
16

> <standard_units>
nM

> hash
4781207289351067986

$$$$
16_
XXILIB    08252103493D 0   0.00000     0.00000

 29 32  0     1  0            999 V2000
   -6.9598   -3.4691   -2.6266 Cl  0  0  0  0  0  1           0  0  0
    5.6921   -0.5616    1.6023 S   0  0  0  0  0  2           0  0  0
   -5.7457   -1.4799   -0.8086 F   0  0  0  0  0  1           0  0  0
   -4.1920   -1.6530    2.1281 O   0  0  0  0  0  2           0  0  0
    6.8183    0.4626    3.6740 N   0  0  0  0  0  3           0  0  0
    3.1777    0.8892    1.5025 N   0  0  0  0  0  3           0  0  0
    4.9255    1.6716    2.9706 N   0  0  0  0  0  3           0  0  0
   -2.6075   -1.0680    0.5484 N   0  0  2  0  0  3           0  0  0
    0.0000    0.0000    0.0000 N   0  0  2  0  0  3           0  0  0
   -5.6815   -3.7451   -1.5070 C   0  0  0  0  0  4           0  0  0
    5.7998    0.6447    2.8521 C   0  0  0  0  0  4           0  0  0
    7.0775   -1.3448    2.2231 C   0  0  0  0  0  4           0  0  0
   -5.2093   -2.7060   -0.7097 C   0  0  0  0  0  4           0  0  0
    3.8245    1.9132    2.1221 C   0  0  0  0  0  4           0  0  0
    2.1380    1.1720    0.6767 C   0  0  0  0  0  4           0  0  0
    7.5383   -0.6609    3.3227 C   0  0  0  0  0  4           0  0  0
   -4.1740   -2.9409    0.1928 C   0  0  0  0  0  4           0  0  0
   -5.1160   -5.0173   -1.4018 C   0  0  0  0  0  4           0  0  0
    3.4499    3.2396    1.8982 C   0  0  0  0  0  4           0  0  0
    1.7133    2.4706    0.4234 C   0  0  0  0  0  4           0  0  0
   -3.5957   -4.2053    0.3024 C   0  0  0  0  0  4           0  0  0
   -4.0736   -5.2437   -0.4979 C   0  0  0  0  0  4           0  0  0
    2.3838    3.5132    1.0468 C   0  0  0  0  0  4           0  0  0
   -3.6615   -1.8343    1.0316 C   0  0  0  0  0  4           0  0  0
    1.4663    0.0000   -0.0000 C   0  0  0  0  0  4           0  0  0
   -2.0707    0.0224    1.3564 C   0  0  0  0  0  4           0  0  0
   -2.0334   -1.1745   -0.7953 C   0  0  0  0  0  4           0  0  0
   -0.5423    0.0000    1.3718 C   0  0  0  0  0  4           0  0  0
   -0.5050   -1.1697   -0.7404 C   0  0  0  0  0  4           0  0  0
  1 10  1  0     0  0
  2 11  1  0     0  0
  2 12  1  0     0  0
  3 13  1  0     0  0
  4 24  2  0     0  0
  5 11  2  0     0  0
  5 16  1  0     0  0
  6 14  1  0     0  0
  6 15  2  0     0  0
  7 11  1  0     0  0
  7 14  1  0     0  0
  8 24  1  0     0  0
  8 26  1  0     0  0
  8 27  1  0     0  0
  9 25  1  0     0  0
  9 28  1  0     0  0
  9 29  1  0     0  0
 10 13  2  0     0  0
 10 18  1  0     0  0
 12 16  2  0     0  0
 13 17  1  0     0  0
 14 19  2  0     0  0
 15 20  1  0     0  0
 15 25  1  0     0  0
 17 21  2  0     0  0
 17 24  1  0     0  0
 18 22  2  0     0  0
 19 23  1  0     0  0
 20 23  2  0     0  0
 21 22  1  0     0  0
 26 28  1  0     0  0
 27 29  1  0     0  0
M  END
> <standard_type>
pIC50

> <# Confs.>
25

> <canonical_smiles>
O=C(C1=CC=CC(Cl)=C1F)N(CC2)CCN2CC3=NC(NC4=NC=CS4)=CC=C3

> <standard_relation>
=

> <Publication_ID>
nan

> <predicted_activity_value>
6.292429823902063

> <actual_activity_value>
6.356547323513812

> <Compound>
16

> <standard_units>
nM

> hash
4781207289351067986

$$$$
16_
XXILIB    08252103493D 0   0.00000     0.00000

 29 32  0     1  0            999 V2000
   -3.4356   -6.8346   -0.3391 Cl  0  0  0  0  0  1           0  0  0
    3.6790   -0.7408    3.9110 S   0  0  0  0  0  2           0  0  0
   -2.6156   -4.4307    1.1725 F   0  0  0  0  0  1           0  0  0
   -4.1920   -1.6530    2.1281 O   0  0  0  0  0  2           0  0  0
    3.9528    0.7833    5.9632 N   0  0  0  0  0  3           0  0  0
    2.4104    1.0416    2.0003 N   0  0  0  0  0  3           0  0  0
    3.3547    1.9667    4.0189 N   0  0  0  0  0  3           0  0  0
   -2.6075   -1.0680    0.5484 N   0  0  2  0  0  3           0  0  0
    0.0000    0.0000    0.0000 N   0  0  2  0  0  3           0  0  0
   -4.1111   -5.2567   -0.4719 C   0  0  0  0  0  4           0  0  0
    3.6526    0.8217    4.6770 C   0  0  0  0  0  4           0  0  0
    4.1074   -1.4730    5.3937 C   0  0  0  0  0  4           0  0  0
   -3.6193   -4.2140    0.3086 C   0  0  0  0  0  4           0  0  0
    3.0292    2.0645    2.6495 C   0  0  0  0  0  4           0  0  0
    2.1380    1.1720    0.6767 C   0  0  0  0  0  4           0  0  0
    4.2065   -0.5107    6.3700 C   0  0  0  0  0  4           0  0  0
   -4.1740   -2.9409    0.1928 C   0  0  0  0  0  4           0  0  0
   -5.1583   -5.0250   -1.3657 C   0  0  0  0  0  4           0  0  0
    3.4064    3.2238    1.9687 C   0  0  0  0  0  4           0  0  0
    2.4797    2.3053   -0.0511 C   0  0  0  0  0  4           0  0  0
   -5.2252   -2.6980   -0.6908 C   0  0  0  0  0  4           0  0  0
   -5.7135   -3.7462   -1.4720 C   0  0  0  0  0  4           0  0  0
    3.1225    3.3411    0.6115 C   0  0  0  0  0  4           0  0  0
   -3.6615   -1.8343    1.0316 C   0  0  0  0  0  4           0  0  0
    1.4663   -0.0000    0.0000 C   0  0  0  0  0  4           0  0  0
   -2.0707    0.0224    1.3564 C   0  0  0  0  0  4           0  0  0
   -2.0334   -1.1745   -0.7953 C   0  0  0  0  0  4           0  0  0
   -0.5423    0.0000    1.3718 C   0  0  0  0  0  4           0  0  0
   -0.5050   -1.1697   -0.7404 C   0  0  0  0  0  4           0  0  0
  1 10  1  0     0  0
  2 11  1  0     0  0
  2 12  1  0     0  0
  3 13  1  0     0  0
  4 24  2  0     0  0
  5 11  2  0     0  0
  5 16  1  0     0  0
  6 14  1  0     0  0
  6 15  2  0     0  0
  7 11  1  0     0  0
  7 14  1  0     0  0
  8 24  1  0     0  0
  8 26  1  0     0  0
  8 27  1  0     0  0
  9 25  1  0     0  0
  9 28  1  0     0  0
  9 29  1  0     0  0
 10 13  2  0     0  0
 10 18  1  0     0  0
 12 16  2  0     0  0
 13 17  1  0     0  0
 14 19  2  0     0  0
 15 20  1  0     0  0
 15 25  1  0     0  0
 17 21  2  0     0  0
 17 24  1  0     0  0
 18 22  2  0     0  0
 19 23  1  0     0  0
 20 23  2  0     0  0
 21 22  1  0     0  0
 26 28  1  0     0  0
 27 29  1  0     0  0
M  END
> <standard_type>
pIC50

> <# Confs.>
25

> <canonical_smiles>
O=C(C1=CC=CC(Cl)=C1F)N(CC2)CCN2CC3=NC(NC4=NC=CS4)=CC=C3

> <standard_relation>
=

> <Publication_ID>
nan

> <predicted_activity_value>
6.292429823902063

> <actual_activity_value>
6.356547323513812

> <Compound>
16

> <standard_units>
nM

> hash
4781207289351067986

$$$$
16_
XXILIB    08252103493D 0   0.00000     0.00000

 29 32  0     1  0            999 V2000
   -3.4356   -6.8346   -0.3391 Cl  0  0  0  0  0  1           0  0  0
    3.9214   -3.6453   -1.1936 S   0  0  0  0  0  2           0  0  0
   -2.6156   -4.4307    1.1725 F   0  0  0  0  0  1           0  0  0
   -4.1920   -1.6530    2.1281 O   0  0  0  0  0  2           0  0  0
    6.0581   -3.7991   -2.6150 N   0  0  0  0  0  3           0  0  0
    3.1777   -0.8566   -1.5214 N   0  0  0  0  0  3           0  0  0
    4.8738   -1.7946   -2.9587 N   0  0  0  0  0  3           0  0  0
   -2.6075   -1.0680    0.5484 N   0  0  2  0  0  3           0  0  0
    0.0000    0.0000    0.0000 N   0  0  2  0  0  3           0  0  0
   -4.1111   -5.2567   -0.4719 C   0  0  0  0  0  4           0  0  0
    5.0368   -2.9995   -2.3631 C   0  0  0  0  0  4           0  0  0
    4.8811   -5.0498   -1.0371 C   0  0  0  0  0  4           0  0  0
   -3.6193   -4.2140    0.3086 C   0  0  0  0  0  4           0  0  0
    3.8041   -0.9040   -2.7281 C   0  0  0  0  0  4           0  0  0
    2.1380    0.0000   -1.3533 C   0  0  0  0  0  4           0  0  0
    5.9737   -4.9547   -1.8656 C   0  0  0  0  0  4           0  0  0
   -4.1740   -2.9409    0.1928 C   0  0  0  0  0  4           0  0  0
   -5.1583   -5.0250   -1.3657 C   0  0  0  0  0  4           0  0  0
    3.3751   -0.1075   -3.7917 C   0  0  0  0  0  4           0  0  0
    1.6734    0.8241   -2.3711 C   0  0  0  0  0  4           0  0  0
   -5.2252   -2.6980   -0.6908 C   0  0  0  0  0  4           0  0  0
   -5.7135   -3.7462   -1.4720 C   0  0  0  0  0  4           0  0  0
    2.3063    0.7636   -3.6044 C   0  0  0  0  0  4           0  0  0
   -3.6615   -1.8343    1.0316 C   0  0  0  0  0  4           0  0  0
    1.4663    0.0000   -0.0000 C   0  0  0  0  0  4           0  0  0
   -2.0707    0.0224    1.3564 C   0  0  0  0  0  4           0  0  0
   -2.0334   -1.1745   -0.7953 C   0  0  0  0  0  4           0  0  0
   -0.5423    0.0000    1.3718 C   0  0  0  0  0  4           0  0  0
   -0.5050   -1.1697   -0.7404 C   0  0  0  0  0  4           0  0  0
  1 10  1  0     0  0
  2 11  1  0     0  0
  2 12  1  0     0  0
  3 13  1  0     0  0
  4 24  2  0     0  0
  5 11  2  0     0  0
  5 16  1  0     0  0
  6 14  1  0     0  0
  6 15  2  0     0  0
  7 11  1  0     0  0
  7 14  1  0     0  0
  8 24  1  0     0  0
  8 26  1  0     0  0
  8 27  1  0     0  0
  9 25  1  0     0  0
  9 28  1  0     0  0
  9 29  1  0     0  0
 10 13  2  0     0  0
 10 18  1  0     0  0
 12 16  2  0     0  0
 13 17  1  0     0  0
 14 19  2  0     0  0
 15 20  1  0     0  0
 15 25  1  0     0  0
 17 21  2  0     0  0
 17 24  1  0     0  0
 18 22  2  0     0  0
 19 23  1  0     0  0
 20 23  2  0     0  0
 21 22  1  0     0  0
 26 28  1  0     0  0
 27 29  1  0     0  0
M  END
> <standard_type>
pIC50

> <# Confs.>
25

> <canonical_smiles>
O=C(C1=CC=CC(Cl)=C1F)N(CC2)CCN2CC3=NC(NC4=NC=CS4)=CC=C3

> <standard_relation>
=

> <Publication_ID>
nan

> <predicted_activity_value>
6.292429823902063

> <actual_activity_value>
6.356547323513812

> <Compound>
16

> <standard_units>
nM

> hash
4781207289351067986

$$$$
16_
XXILIB    08252103493D 0   0.00000     0.00000

 29 32  0     1  0            999 V2000
   -6.9598   -3.4691   -2.6266 Cl  0  0  0  0  0  1           0  0  0
    4.4832   -6.9402   -0.5102 S   0  0  0  0  0  2           0  0  0
   -5.7457   -1.4799   -0.8086 F   0  0  0  0  0  1           0  0  0
   -4.1920   -1.6530    2.1281 O   0  0  0  0  0  2           0  0  0
    2.6822   -6.1785    1.1589 N   0  0  0  0  0  3           0  0  0
    2.4104   -2.2531   -0.0981 N   0  0  0  0  0  3           0  0  0
    3.3547   -4.4638   -0.3062 N   0  0  0  0  0  3           0  0  0
   -2.6075   -1.0680    0.5484 N   0  0  2  0  0  3           0  0  0
    0.0000    0.0000    0.0000 N   0  0  2  0  0  3           0  0  0
   -5.6815   -3.7451   -1.5070 C   0  0  0  0  0  4           0  0  0
    3.4197   -5.7346    0.1564 C   0  0  0  0  0  4           0  0  0
    3.8998   -8.0904    0.6100 C   0  0  0  0  0  4           0  0  0
   -5.2093   -2.7060   -0.7097 C   0  0  0  0  0  4           0  0  0
    3.0292   -3.3268    0.4632 C   0  0  0  0  0  4           0  0  0
    2.1380   -1.1720    0.6767 C   0  0  0  0  0  4           0  0  0
    2.9494   -7.5081    1.4141 C   0  0  0  0  0  4           0  0  0
   -4.1740   -2.9409    0.1928 C   0  0  0  0  0  4           0  0  0
   -5.1160   -5.0173   -1.4018 C   0  0  0  0  0  4           0  0  0
    3.4064   -3.3168    1.8076 C   0  0  0  0  0  4           0  0  0
    2.4797   -1.1084    2.0220 C   0  0  0  0  0  4           0  0  0
   -3.5957   -4.2053    0.3024 C   0  0  0  0  0  4           0  0  0
   -4.0736   -5.2437   -0.4979 C   0  0  0  0  0  4           0  0  0
    3.1225   -2.2002    2.5877 C   0  0  0  0  0  4           0  0  0
   -3.6615   -1.8343    1.0316 C   0  0  0  0  0  4           0  0  0
    1.4663   -0.0000   -0.0000 C   0  0  0  0  0  4           0  0  0
   -2.0707    0.0224    1.3564 C   0  0  0  0  0  4           0  0  0
   -2.0334   -1.1745   -0.7953 C   0  0  0  0  0  4           0  0  0
   -0.5423    0.0000    1.3718 C   0  0  0  0  0  4           0  0  0
   -0.5050   -1.1697   -0.7404 C   0  0  0  0  0  4           0  0  0
  1 10  1  0     0  0
  2 11  1  0     0  0
  2 12  1  0     0  0
  3 13  1  0     0  0
  4 24  2  0     0  0
  5 11  2  0     0  0
  5 16  1  0     0  0
  6 14  1  0     0  0
  6 15  2  0     0  0
  7 11  1  0     0  0
  7 14  1  0     0  0
  8 24  1  0     0  0
  8 26  1  0     0  0
  8 27  1  0     0  0
  9 25  1  0     0  0
  9 28  1  0     0  0
  9 29  1  0     0  0
 10 13  2  0     0  0
 10 18  1  0     0  0
 12 16  2  0     0  0
 13 17  1  0     0  0
 14 19  2  0     0  0
 15 20  1  0     0  0
 15 25  1  0     0  0
 17 21  2  0     0  0
 17 24  1  0     0  0
 18 22  2  0     0  0
 19 23  1  0     0  0
 20 23  2  0     0  0
 21 22  1  0     0  0
 26 28  1  0     0  0
 27 29  1  0     0  0
M  END
> <standard_type>
pIC50

> <# Confs.>
25

> <canonical_smiles>
O=C(C1=CC=CC(Cl)=C1F)N(CC2)CCN2CC3=NC(NC4=NC=CS4)=CC=C3

> <standard_relation>
=

> <Publication_ID>
nan

> <predicted_activity_value>
6.292429823902063

> <actual_activity_value>
6.356547323513812

> <Compound>
16

> <standard_units>
nM

> hash
4781207289351067986

$$$$
16_
XXILIB    08252103493D 0   0.00000     0.00000

 29 32  0     1  0            999 V2000
   -6.9598   -3.4691   -2.6266 Cl  0  0  0  0  0  1           0  0  0
    3.9214   -3.6453   -1.1936 S   0  0  0  0  0  2           0  0  0
   -5.7457   -1.4799   -0.8086 F   0  0  0  0  0  1           0  0  0
   -4.1920   -1.6530    2.1281 O   0  0  0  0  0  2           0  0  0
    6.0581   -3.7991   -2.6150 N   0  0  0  0  0  3           0  0  0
    3.1777   -0.8566   -1.5214 N   0  0  0  0  0  3           0  0  0
    4.8738   -1.7946   -2.9587 N   0  0  0  0  0  3           0  0  0
   -2.6075   -1.0680    0.5484 N   0  0  2  0  0  3           0  0  0
    0.0000    0.0000    0.0000 N   0  0  2  0  0  3           0  0  0
   -5.6815   -3.7451   -1.5070 C   0  0  0  0  0  4           0  0  0
    5.0368   -2.9995   -2.3631 C   0  0  0  0  0  4           0  0  0
    4.8811   -5.0498   -1.0371 C   0  0  0  0  0  4           0  0  0
   -5.2093   -2.7060   -0.7097 C   0  0  0  0  0  4           0  0  0
    3.8041   -0.9040   -2.7281 C   0  0  0  0  0  4           0  0  0
    2.1380    0.0000   -1.3533 C   0  0  0  0  0  4           0  0  0
    5.9737   -4.9547   -1.8656 C   0  0  0  0  0  4           0  0  0
   -4.1740   -2.9409    0.1928 C   0  0  0  0  0  4           0  0  0
   -5.1160   -5.0173   -1.4018 C   0  0  0  0  0  4           0  0  0
    3.3751   -0.1075   -3.7917 C   0  0  0  0  0  4           0  0  0
    1.6734    0.8241   -2.3711 C   0  0  0  0  0  4           0  0  0
   -3.5957   -4.2053    0.3024 C   0  0  0  0  0  4           0  0  0
   -4.0736   -5.2437   -0.4979 C   0  0  0  0  0  4           0  0  0
    2.3063    0.7636   -3.6044 C   0  0  0  0  0  4           0  0  0
   -3.6615   -1.8343    1.0316 C   0  0  0  0  0  4           0  0  0
    1.4663    0.0000   -0.0000 C   0  0  0  0  0  4           0  0  0
   -2.0707    0.0224    1.3564 C   0  0  0  0  0  4           0  0  0
   -2.0334   -1.1745   -0.7953 C   0  0  0  0  0  4           0  0  0
   -0.5423    0.0000    1.3718 C   0  0  0  0  0  4           0  0  0
   -0.5050   -1.1697   -0.7404 C   0  0  0  0  0  4           0  0  0
  1 10  1  0     0  0
  2 11  1  0     0  0
  2 12  1  0     0  0
  3 13  1  0     0  0
  4 24  2  0     0  0
  5 11  2  0     0  0
  5 16  1  0     0  0
  6 14  1  0     0  0
  6 15  2  0     0  0
  7 11  1  0     0  0
  7 14  1  0     0  0
  8 24  1  0     0  0
  8 26  1  0     0  0
  8 27  1  0     0  0
  9 25  1  0     0  0
  9 28  1  0     0  0
  9 29  1  0     0  0
 10 13  2  0     0  0
 10 18  1  0     0  0
 12 16  2  0     0  0
 13 17  1  0     0  0
 14 19  2  0     0  0
 15 20  1  0     0  0
 15 25  1  0     0  0
 17 21  2  0     0  0
 17 24  1  0     0  0
 18 22  2  0     0  0
 19 23  1  0     0  0
 20 23  2  0     0  0
 21 22  1  0     0  0
 26 28  1  0     0  0
 27 29  1  0     0  0
M  END
> <standard_type>
pIC50

> <# Confs.>
25

> <canonical_smiles>
O=C(C1=CC=CC(Cl)=C1F)N(CC2)CCN2CC3=NC(NC4=NC=CS4)=CC=C3

> <standard_relation>
=

> <Publication_ID>
nan

> <predicted_activity_value>
6.292429823902063

> <actual_activity_value>
6.356547323513812

> <Compound>
16

> <standard_units>
nM

> hash
4781207289351067986

$$$$
16_
XXILIB    08252103493D 0   0.00000     0.00000

 29 32  0     1  0            999 V2000
   -6.9598   -3.4691   -2.6266 Cl  0  0  0  0  0  1           0  0  0
    1.1748   -3.7574   -2.5569 S   0  0  0  0  0  2           0  0  0
   -5.7457   -1.4799   -0.8086 F   0  0  0  0  0  1           0  0  0
   -4.1920   -1.6530    2.1281 O   0  0  0  0  0  2           0  0  0
    2.8778   -4.7727   -4.1935 N   0  0  0  0  0  3           0  0  0
    2.4104   -1.2115   -1.9022 N   0  0  0  0  0  3           0  0  0
    3.2815   -2.4971   -3.7490 N   0  0  0  0  0  3           0  0  0
   -2.6075   -1.0680    0.5484 N   0  0  2  0  0  3           0  0  0
    0.0000    0.0000    0.0000 N   0  0  2  0  0  3           0  0  0
   -5.6815   -3.7451   -1.5070 C   0  0  0  0  0  4           0  0  0
    2.5736   -3.6396   -3.5857 C   0  0  0  0  0  4           0  0  0
    1.0012   -5.4076   -2.9629 C   0  0  0  0  0  4           0  0  0
   -5.2093   -2.7060   -0.7097 C   0  0  0  0  0  4           0  0  0
    3.0003   -1.2623   -3.1270 C   0  0  0  0  0  4           0  0  0
    2.1380    0.0000   -1.3533 C   0  0  0  0  0  4           0  0  0
    1.9938   -5.7719   -3.8409 C   0  0  0  0  0  4           0  0  0
   -4.1740   -2.9409    0.1928 C   0  0  0  0  0  4           0  0  0
   -5.1160   -5.0173   -1.4018 C   0  0  0  0  0  4           0  0  0
    3.3008   -0.0930   -3.8287 C   0  0  0  0  0  4           0  0  0
    2.4233    1.1969   -1.9989 C   0  0  0  0  0  4           0  0  0
   -3.5957   -4.2053    0.3024 C   0  0  0  0  0  4           0  0  0
   -4.0736   -5.2437   -0.4979 C   0  0  0  0  0  4           0  0  0
    3.0129    1.1410   -3.2536 C   0  0  0  0  0  4           0  0  0
   -3.6615   -1.8343    1.0316 C   0  0  0  0  0  4           0  0  0
    1.4663   -0.0000   -0.0000 C   0  0  0  0  0  4           0  0  0
   -2.0707    0.0224    1.3564 C   0  0  0  0  0  4           0  0  0
   -2.0334   -1.1745   -0.7953 C   0  0  0  0  0  4           0  0  0
   -0.5423    0.0000    1.3718 C   0  0  0  0  0  4           0  0  0
   -0.5050   -1.1697   -0.7404 C   0  0  0  0  0  4           0  0  0
  1 10  1  0     0  0
  2 11  1  0     0  0
  2 12  1  0     0  0
  3 13  1  0     0  0
  4 24  2  0     0  0
  5 11  2  0     0  0
  5 16  1  0     0  0
  6 14  1  0     0  0
  6 15  2  0     0  0
  7 11  1  0     0  0
  7 14  1  0     0  0
  8 24  1  0     0  0
  8 26  1  0     0  0
  8 27  1  0     0  0
  9 25  1  0     0  0
  9 28  1  0     0  0
  9 29  1  0     0  0
 10 13  2  0     0  0
 10 18  1  0     0  0
 12 16  2  0     0  0
 13 17  1  0     0  0
 14 19  2  0     0  0
 15 20  1  0     0  0
 15 25  1  0     0  0
 17 21  2  0     0  0
 17 24  1  0     0  0
 18 22  2  0     0  0
 19 23  1  0     0  0
 20 23  2  0     0  0
 21 22  1  0     0  0
 26 28  1  0     0  0
 27 29  1  0     0  0
M  END
> <standard_type>
pIC50

> <# Confs.>
25

> <canonical_smiles>
O=C(C1=CC=CC(Cl)=C1F)N(CC2)CCN2CC3=NC(NC4=NC=CS4)=CC=C3

> <standard_relation>
=

> <Publication_ID>
nan

> <predicted_activity_value>
6.292429823902063

> <actual_activity_value>
6.356547323513812

> <Compound>
16

> <standard_units>
nM

> hash
4781207289351067986

$$$$
16_
XXILIB    08252103493D 0   0.00000     0.00000

 29 32  0     1  0            999 V2000
   -3.4356   -6.8346   -0.3391 Cl  0  0  0  0  0  1           0  0  0
    1.2528    0.3133    4.5628 S   0  0  0  0  0  2           0  0  0
   -2.6156   -4.4307    1.1725 F   0  0  0  0  0  1           0  0  0
   -4.1920   -1.6530    2.1281 O   0  0  0  0  0  2           0  0  0
    3.0186    1.1876    6.2141 N   0  0  0  0  0  3           0  0  0
    2.4104    1.0416    2.0003 N   0  0  0  0  0  3           0  0  0
    3.3547    1.9667    4.0189 N   0  0  0  0  0  3           0  0  0
   -2.6075   -1.0680    0.5484 N   0  0  2  0  0  3           0  0  0
    0.0000    0.0000    0.0000 N   0  0  2  0  0  3           0  0  0
   -4.1111   -5.2567   -0.4719 C   0  0  0  0  0  4           0  0  0
    2.6714    1.2480    4.9407 C   0  0  0  0  0  4           0  0  0
    1.1237   -0.1718    6.1956 C   0  0  0  0  0  4           0  0  0
   -3.6193   -4.2140    0.3086 C   0  0  0  0  0  4           0  0  0
    3.0292    2.0645    2.6495 C   0  0  0  0  0  4           0  0  0
    2.1380    1.1720    0.6767 C   0  0  0  0  0  4           0  0  0
    2.1449    0.3898    6.9242 C   0  0  0  0  0  4           0  0  0
   -4.1740   -2.9409    0.1928 C   0  0  0  0  0  4           0  0  0
   -5.1583   -5.0250   -1.3657 C   0  0  0  0  0  4           0  0  0
    3.4064    3.2238    1.9687 C   0  0  0  0  0  4           0  0  0
    2.4797    2.3053   -0.0511 C   0  0  0  0  0  4           0  0  0
   -5.2252   -2.6980   -0.6908 C   0  0  0  0  0  4           0  0  0
   -5.7135   -3.7462   -1.4720 C   0  0  0  0  0  4           0  0  0
    3.1225    3.3411    0.6115 C   0  0  0  0  0  4           0  0  0
   -3.6615   -1.8343    1.0316 C   0  0  0  0  0  4           0  0  0
    1.4663   -0.0000    0.0000 C   0  0  0  0  0  4           0  0  0
   -2.0707    0.0224    1.3564 C   0  0  0  0  0  4           0  0  0
   -2.0334   -1.1745   -0.7953 C   0  0  0  0  0  4           0  0  0
   -0.5423    0.0000    1.3718 C   0  0  0  0  0  4           0  0  0
   -0.5050   -1.1697   -0.7404 C   0  0  0  0  0  4           0  0  0
  1 10  1  0     0  0
  2 11  1  0     0  0
  2 12  1  0     0  0
  3 13  1  0     0  0
  4 24  2  0     0  0
  5 11  2  0     0  0
  5 16  1  0     0  0
  6 14  1  0     0  0
  6 15  2  0     0  0
  7 11  1  0     0  0
  7 14  1  0     0  0
  8 24  1  0     0  0
  8 26  1  0     0  0
  8 27  1  0     0  0
  9 25  1  0     0  0
  9 28  1  0     0  0
  9 29  1  0     0  0
 10 13  2  0     0  0
 10 18  1  0     0  0
 12 16  2  0     0  0
 13 17  1  0     0  0
 14 19  2  0     0  0
 15 20  1  0     0  0
 15 25  1  0     0  0
 17 21  2  0     0  0
 17 24  1  0     0  0
 18 22  2  0     0  0
 19 23  1  0     0  0
 20 23  2  0     0  0
 21 22  1  0     0  0
 26 28  1  0     0  0
 27 29  1  0     0  0
M  END
> <standard_type>
pIC50

> <# Confs.>
25

> <canonical_smiles>
O=C(C1=CC=CC(Cl)=C1F)N(CC2)CCN2CC3=NC(NC4=NC=CS4)=CC=C3

> <standard_relation>
=

> <Publication_ID>
nan

> <predicted_activity_value>
6.292429823902063

> <actual_activity_value>
6.356547323513812

> <Compound>
16

> <standard_units>
nM

> hash
4781207289351067986

$$$$
16_
XXILIB    08252103493D 0   0.00000     0.00000

 29 32  0     1  0            999 V2000
   -3.4356   -6.8346   -0.3391 Cl  0  0  0  0  0  1           0  0  0
    4.3820   -6.9857   -0.4858 S   0  0  0  0  0  2           0  0  0
   -2.6156   -4.4307    1.1725 F   0  0  0  0  0  1           0  0  0
   -4.1920   -1.6530    2.1281 O   0  0  0  0  0  2           0  0  0
    5.5355   -4.8947    0.4664 N   0  0  0  0  0  3           0  0  0
    2.4104   -2.2531   -0.0981 N   0  0  0  0  0  3           0  0  0
    3.3547   -4.4638   -0.3062 N   0  0  0  0  0  3           0  0  0
   -2.6075   -1.0680    0.5484 N   0  0  2  0  0  3           0  0  0
    0.0000    0.0000    0.0000 N   0  0  2  0  0  3           0  0  0
   -4.1111   -5.2567   -0.4719 C   0  0  0  0  0  4           0  0  0
    4.4009   -5.2932   -0.0810 C   0  0  0  0  0  4           0  0  0
    5.9712   -7.1590    0.1164 C   0  0  0  0  0  4           0  0  0
   -3.6193   -4.2140    0.3086 C   0  0  0  0  0  4           0  0  0
    3.0292   -3.3268    0.4632 C   0  0  0  0  0  4           0  0  0
    2.1380   -1.1720    0.6767 C   0  0  0  0  0  4           0  0  0
    6.4213   -5.9465    0.5815 C   0  0  0  0  0  4           0  0  0
   -4.1740   -2.9409    0.1928 C   0  0  0  0  0  4           0  0  0
   -5.1583   -5.0250   -1.3657 C   0  0  0  0  0  4           0  0  0
    3.4064   -3.3168    1.8076 C   0  0  0  0  0  4           0  0  0
    2.4797   -1.1084    2.0220 C   0  0  0  0  0  4           0  0  0
   -5.2252   -2.6980   -0.6908 C   0  0  0  0  0  4           0  0  0
   -5.7135   -3.7462   -1.4720 C   0  0  0  0  0  4           0  0  0
    3.1225   -2.2002    2.5877 C   0  0  0  0  0  4           0  0  0
   -3.6615   -1.8343    1.0316 C   0  0  0  0  0  4           0  0  0
    1.4663   -0.0000   -0.0000 C   0  0  0  0  0  4           0  0  0
   -2.0707    0.0224    1.3564 C   0  0  0  0  0  4           0  0  0
   -2.0334   -1.1745   -0.7953 C   0  0  0  0  0  4           0  0  0
   -0.5423    0.0000    1.3718 C   0  0  0  0  0  4           0  0  0
   -0.5050   -1.1697   -0.7404 C   0  0  0  0  0  4           0  0  0
  1 10  1  0     0  0
  2 11  1  0     0  0
  2 12  1  0     0  0
  3 13  1  0     0  0
  4 24  2  0     0  0
  5 11  2  0     0  0
  5 16  1  0     0  0
  6 14  1  0     0  0
  6 15  2  0     0  0
  7 11  1  0     0  0
  7 14  1  0     0  0
  8 24  1  0     0  0
  8 26  1  0     0  0
  8 27  1  0     0  0
  9 25  1  0     0  0
  9 28  1  0     0  0
  9 29  1  0     0  0
 10 13  2  0     0  0
 10 18  1  0     0  0
 12 16  2  0     0  0
 13 17  1  0     0  0
 14 19  2  0     0  0
 15 20  1  0     0  0
 15 25  1  0     0  0
 17 21  2  0     0  0
 17 24  1  0     0  0
 18 22  2  0     0  0
 19 23  1  0     0  0
 20 23  2  0     0  0
 21 22  1  0     0  0
 26 28  1  0     0  0
 27 29  1  0     0  0
M  END
> <standard_type>
pIC50

> <# Confs.>
25

> <canonical_smiles>
O=C(C1=CC=CC(Cl)=C1F)N(CC2)CCN2CC3=NC(NC4=NC=CS4)=CC=C3

> <standard_relation>
=

> <Publication_ID>
nan

> <predicted_activity_value>
6.292429823902063

> <actual_activity_value>
6.356547323513812

> <Compound>
16

> <standard_units>
nM

> hash
4781207289351067986

$$$$
16_
XXILIB    08252103493D 0   0.00000     0.00000

 29 32  0     1  0            999 V2000
   -6.9598   -3.4691   -2.6266 Cl  0  0  0  0  0  1           0  0  0
    3.6790   -0.7408    3.9110 S   0  0  0  0  0  2           0  0  0
   -5.7457   -1.4799   -0.8086 F   0  0  0  0  0  1           0  0  0
   -4.1920   -1.6530    2.1281 O   0  0  0  0  0  2           0  0  0
    3.9528    0.7833    5.9632 N   0  0  0  0  0  3           0  0  0
    2.4104    1.0416    2.0003 N   0  0  0  0  0  3           0  0  0
    3.3547    1.9667    4.0189 N   0  0  0  0  0  3           0  0  0
   -2.6075   -1.0680    0.5484 N   0  0  2  0  0  3           0  0  0
    0.0000    0.0000    0.0000 N   0  0  2  0  0  3           0  0  0
   -5.6815   -3.7451   -1.5070 C   0  0  0  0  0  4           0  0  0
    3.6526    0.8217    4.6770 C   0  0  0  0  0  4           0  0  0
    4.1074   -1.4730    5.3937 C   0  0  0  0  0  4           0  0  0
   -5.2093   -2.7060   -0.7097 C   0  0  0  0  0  4           0  0  0
    3.0292    2.0645    2.6495 C   0  0  0  0  0  4           0  0  0
    2.1380    1.1720    0.6767 C   0  0  0  0  0  4           0  0  0
    4.2065   -0.5107    6.3700 C   0  0  0  0  0  4           0  0  0
   -4.1740   -2.9409    0.1928 C   0  0  0  0  0  4           0  0  0
   -5.1160   -5.0173   -1.4018 C   0  0  0  0  0  4           0  0  0
    3.4064    3.2238    1.9687 C   0  0  0  0  0  4           0  0  0
    2.4797    2.3053   -0.0511 C   0  0  0  0  0  4           0  0  0
   -3.5957   -4.2053    0.3024 C   0  0  0  0  0  4           0  0  0
   -4.0736   -5.2437   -0.4979 C   0  0  0  0  0  4           0  0  0
    3.1225    3.3411    0.6115 C   0  0  0  0  0  4           0  0  0
   -3.6615   -1.8343    1.0316 C   0  0  0  0  0  4           0  0  0
    1.4663   -0.0000    0.0000 C   0  0  0  0  0  4           0  0  0
   -2.0707    0.0224    1.3564 C   0  0  0  0  0  4           0  0  0
   -2.0334   -1.1745   -0.7953 C   0  0  0  0  0  4           0  0  0
   -0.5423    0.0000    1.3718 C   0  0  0  0  0  4           0  0  0
   -0.5050   -1.1697   -0.7404 C   0  0  0  0  0  4           0  0  0
  1 10  1  0     0  0
  2 11  1  0     0  0
  2 12  1  0     0  0
  3 13  1  0     0  0
  4 24  2  0     0  0
  5 11  2  0     0  0
  5 16  1  0     0  0
  6 14  1  0     0  0
  6 15  2  0     0  0
  7 11  1  0     0  0
  7 14  1  0     0  0
  8 24  1  0     0  0
  8 26  1  0     0  0
  8 27  1  0     0  0
  9 25  1  0     0  0
  9 28  1  0     0  0
  9 29  1  0     0  0
 10 13  2  0     0  0
 10 18  1  0     0  0
 12 16  2  0     0  0
 13 17  1  0     0  0
 14 19  2  0     0  0
 15 20  1  0     0  0
 15 25  1  0     0  0
 17 21  2  0     0  0
 17 24  1  0     0  0
 18 22  2  0     0  0
 19 23  1  0     0  0
 20 23  2  0     0  0
 21 22  1  0     0  0
 26 28  1  0     0  0
 27 29  1  0     0  0
M  END
> <standard_type>
pIC50

> <# Confs.>
25

> <canonical_smiles>
O=C(C1=CC=CC(Cl)=C1F)N(CC2)CCN2CC3=NC(NC4=NC=CS4)=CC=C3

> <standard_relation>
=

> <Publication_ID>
nan

> <predicted_activity_value>
6.292429823902063

> <actual_activity_value>
6.356547323513812

> <Compound>
16

> <standard_units>
nM

> hash
4781207289351067986

$$$$
19_
XXILIB    08252103493D 0   0.00000     0.00000

 33 36  0     1  0            999 V2000
   -2.7637   -4.4069    1.2029 F   0  0  0  0  0  1           0  0  0
   -2.7183   -6.6163    0.6158 F   0  0  0  0  0  1           0  0  0
   -4.6483   -7.4638    0.0836 F   0  0  0  0  0  1           0  0  0
   -3.1938   -7.0252   -1.4652 F   0  0  0  0  0  1           0  0  0
   -4.1851   -1.5539    2.2172 O   0  0  0  0  0  2           0  0  0
    4.2258   -2.6110   -7.0843 N   0  0  0  0  0  3           0  0  0
    3.5366   -1.9454   -6.1462 N   0  0  0  0  0  3           0  0  0
    2.2924   -1.2115   -1.9545 N   0  0  0  0  0  3           0  0  0
    3.0860   -2.5039   -3.8309 N   0  0  0  0  0  3           0  0  0
   -2.6181   -1.0068    0.6058 N   0  0  2  0  0  3           0  0  0
    0.0000   -0.0000    0.0000 N   0  0  2  0  0  3           0  0  0
   -3.7611   -4.1247    0.3492 C   0  0  0  0  0  4           0  0  0
    3.6209   -2.7290   -5.0600 C   0  0  0  0  0  4           0  0  0
    2.8383   -1.2614   -3.1992 C   0  0  0  0  0  4           0  0  0
    4.7515   -3.7950   -6.6554 C   0  0  0  0  0  4           0  0  0
    2.0539    0.0000   -1.3903 C   0  0  0  0  0  4           0  0  0
   -4.2786   -5.1652   -0.4339 C   0  0  0  0  0  4           0  0  0
   -4.2631   -2.8193    0.2580 C   0  0  0  0  0  4           0  0  0
    4.3766   -3.8996   -5.3359 C   0  0  0  0  0  4           0  0  0
    3.1477   -0.0928   -3.8978 C   0  0  0  0  0  4           0  0  0
    2.3502    1.1965   -2.0314 C   0  0  0  0  0  4           0  0  0
   -5.3169   -4.8849   -1.3252 C   0  0  0  0  0  4           0  0  0
   -5.3050   -2.5605   -0.6406 C   0  0  0  0  0  4           0  0  0
    2.9022    1.1412   -3.3034 C   0  0  0  0  0  4           0  0  0
   -5.8263   -3.5903   -1.4273 C   0  0  0  0  0  4           0  0  0
   -3.7199   -6.5453   -0.3039 C   0  0  2  0  0  4           0  0  0
   -3.6827   -1.7440    1.1092 C   0  0  0  0  0  4           0  0  0
    1.4661    0.0000    0.0000 C   0  0  0  0  0  4           0  0  0
   -2.0330    0.0640    1.4064 C   0  0  0  0  0  4           0  0  0
   -2.0770   -1.1237   -0.7511 C   0  0  0  0  0  4           0  0  0
   -0.5065    0.0000    1.3840 C   0  0  0  0  0  4           0  0  0
   -0.5469   -1.1576   -0.7321 C   0  0  0  0  0  4           0  0  0
    5.5460   -4.6807   -7.5324 C   0  0  0  0  0  4           0  0  0
  1 12  1  0     0  0
  2 26  1  0     0  0
  3 26  1  0     0  0
  4 26  1  0     0  0
  5 27  2  0     0  0
  6  7  1  0     0  0
  6 15  1  0     0  0
  7 13  2  0     0  0
  8 14  1  0     0  0
  8 16  2  0     0  0
  9 13  1  0     0  0
  9 14  1  0     0  0
 10 27  1  0     0  0
 10 29  1  0     0  0
 10 30  1  0     0  0
 11 28  1  0     0  0
 11 31  1  0     0  0
 11 32  1  0     0  0
 12 17  1  0     0  0
 12 18  2  0     0  0
 13 19  1  0     0  0
 14 20  2  0     0  0
 15 19  2  0     0  0
 15 33  1  0     0  0
 16 21  1  0     0  0
 16 28  1  0     0  0
 17 22  2  0     0  0
 17 26  1  0     0  0
 18 23  1  0     0  0
 18 27  1  0     0  0
 20 24  1  0     0  0
 21 24  2  0     0  0
 22 25  1  0     0  0
 23 25  2  0     0  0
 29 31  1  0     0  0
 30 32  1  0     0  0
M  END
> <standard_type>
pIC50

> <# Confs.>
25

> <canonical_smiles>
FC(F)(F)C1=CC=CC(C(N2CCN(CC3=NC(NC4=NNC(C)=C4)=CC=C3)CC2)=O)=C1F

> <standard_relation>
=

> <Publication_ID>
nan

> <predicted_activity_value>
6.292429823902063

> <actual_activity_value>
6.229147988357855

> <Compound>
19

> <standard_units>
nM

> hash
11576136930478842395

$$$$
19_
XXILIB    08252103493D 0   0.00000     0.00000

 33 36  0     1  0            999 V2000
   -5.7796   -1.2633   -0.7118 F   0  0  0  0  0  1           0  0  0
   -7.3163   -1.8168   -2.3119 F   0  0  0  0  0  1           0  0  0
   -6.6869   -3.3786   -3.6870 F   0  0  0  0  0  1           0  0  0
   -8.1427   -3.8196   -2.1401 F   0  0  0  0  0  1           0  0  0
   -4.1851   -1.5539    2.2172 O   0  0  0  0  0  2           0  0  0
    4.2258   -2.6110   -7.0843 N   0  0  0  0  0  3           0  0  0
    3.5366   -1.9454   -6.1462 N   0  0  0  0  0  3           0  0  0
    2.2924   -1.2115   -1.9545 N   0  0  0  0  0  3           0  0  0
    3.0860   -2.5039   -3.8309 N   0  0  0  0  0  3           0  0  0
   -2.6181   -1.0068    0.6058 N   0  0  2  0  0  3           0  0  0
    0.0000   -0.0000    0.0000 N   0  0  2  0  0  3           0  0  0
   -5.3068   -2.5172   -0.6275 C   0  0  0  0  0  4           0  0  0
    3.6209   -2.7290   -5.0600 C   0  0  0  0  0  4           0  0  0
    2.8383   -1.2614   -3.1992 C   0  0  0  0  0  4           0  0  0
    4.7515   -3.7950   -6.6554 C   0  0  0  0  0  4           0  0  0
    2.0539    0.0000   -1.3903 C   0  0  0  0  0  4           0  0  0
   -5.8811   -3.4994   -1.4455 C   0  0  0  0  0  4           0  0  0
   -4.2631   -2.8193    0.2580 C   0  0  0  0  0  4           0  0  0
    4.3766   -3.8996   -5.3359 C   0  0  0  0  0  4           0  0  0
    3.1477   -0.0928   -3.8978 C   0  0  0  0  0  4           0  0  0
    2.3502    1.1965   -2.0314 C   0  0  0  0  0  4           0  0  0
   -5.3976   -4.8076   -1.3679 C   0  0  0  0  0  4           0  0  0
   -3.7925   -4.1364    0.3188 C   0  0  0  0  0  4           0  0  0
    2.9022    1.1412   -3.3034 C   0  0  0  0  0  4           0  0  0
   -4.3598   -5.1232   -0.4908 C   0  0  0  0  0  4           0  0  0
   -6.9889   -3.1366   -2.3808 C   0  0  2  0  0  4           0  0  0
   -3.6827   -1.7440    1.1092 C   0  0  0  0  0  4           0  0  0
    1.4661    0.0000    0.0000 C   0  0  0  0  0  4           0  0  0
   -2.0330    0.0640    1.4064 C   0  0  0  0  0  4           0  0  0
   -2.0770   -1.1237   -0.7511 C   0  0  0  0  0  4           0  0  0
   -0.5065    0.0000    1.3840 C   0  0  0  0  0  4           0  0  0
   -0.5469   -1.1576   -0.7321 C   0  0  0  0  0  4           0  0  0
    5.5460   -4.6807   -7.5324 C   0  0  0  0  0  4           0  0  0
  1 12  1  0     0  0
  2 26  1  0     0  0
  3 26  1  0     0  0
  4 26  1  0     0  0
  5 27  2  0     0  0
  6  7  1  0     0  0
  6 15  1  0     0  0
  7 13  2  0     0  0
  8 14  1  0     0  0
  8 16  2  0     0  0
  9 13  1  0     0  0
  9 14  1  0     0  0
 10 27  1  0     0  0
 10 29  1  0     0  0
 10 30  1  0     0  0
 11 28  1  0     0  0
 11 31  1  0     0  0
 11 32  1  0     0  0
 12 17  1  0     0  0
 12 18  2  0     0  0
 13 19  1  0     0  0
 14 20  2  0     0  0
 15 19  2  0     0  0
 15 33  1  0     0  0
 16 21  1  0     0  0
 16 28  1  0     0  0
 17 22  2  0     0  0
 17 26  1  0     0  0
 18 23  1  0     0  0
 18 27  1  0     0  0
 20 24  1  0     0  0
 21 24  2  0     0  0
 22 25  1  0     0  0
 23 25  2  0     0  0
 29 31  1  0     0  0
 30 32  1  0     0  0
M  END
> <standard_type>
pIC50

> <# Confs.>
25

> <canonical_smiles>
FC(F)(F)C1=CC=CC(C(N2CCN(CC3=NC(NC4=NNC(C)=C4)=CC=C3)CC2)=O)=C1F

> <standard_relation>
=

> <Publication_ID>
nan

> <predicted_activity_value>
6.292429823902063

> <actual_activity_value>
6.229147988357855

> <Compound>
19

> <standard_units>
nM

> hash
11576136930478842395

$$$$
19_
XXILIB    08252103493D 0   0.00000     0.00000

 33 36  0     1  0            999 V2000
   -2.7637   -4.4069    1.2029 F   0  0  0  0  0  1           0  0  0
   -2.7183   -6.6163    0.6158 F   0  0  0  0  0  1           0  0  0
   -4.6483   -7.4638    0.0836 F   0  0  0  0  0  1           0  0  0
   -3.1938   -7.0252   -1.4652 F   0  0  0  0  0  1           0  0  0
   -4.1851   -1.5539    2.2172 O   0  0  0  0  0  2           0  0  0
    7.0936   -0.8705   -5.4730 N   0  0  0  0  0  3           0  0  0
    5.9732   -0.5439   -4.8127 N   0  0  0  0  0  3           0  0  0
    3.0815   -0.8567   -1.6210 N   0  0  0  0  0  3           0  0  0
    4.7167   -1.7702   -3.1415 N   0  0  0  0  0  3           0  0  0
   -2.6181   -1.0068    0.6058 N   0  0  2  0  0  3           0  0  0
    0.0000   -0.0000    0.0000 N   0  0  2  0  0  3           0  0  0
   -3.7611   -4.1247    0.3492 C   0  0  0  0  0  4           0  0  0
    5.7407   -1.6009   -4.0191 C   0  0  0  0  0  4           0  0  0
    3.6550   -0.8791   -2.8540 C   0  0  0  0  0  4           0  0  0
    7.5973   -2.0956   -5.1452 C   0  0  0  0  0  4           0  0  0
    2.0539    0.0000   -1.3903 C   0  0  0  0  0  4           0  0  0
   -4.2786   -5.1652   -0.4339 C   0  0  0  0  0  4           0  0  0
   -4.2631   -2.8193    0.2580 C   0  0  0  0  0  4           0  0  0
    6.7377   -2.5970   -4.1953 C   0  0  0  0  0  4           0  0  0
    3.1997   -0.0436   -3.8758 C   0  0  0  0  0  4           0  0  0
    1.5646    0.8626   -2.3635 C   0  0  0  0  0  4           0  0  0
   -5.3169   -4.8849   -1.3252 C   0  0  0  0  0  4           0  0  0
   -5.3050   -2.5605   -0.6406 C   0  0  0  0  0  4           0  0  0
    2.1492    0.8327   -3.6218 C   0  0  0  0  0  4           0  0  0
   -5.8263   -3.5903   -1.4273 C   0  0  0  0  0  4           0  0  0
   -3.7199   -6.5453   -0.3039 C   0  0  2  0  0  4           0  0  0
   -3.6827   -1.7440    1.1092 C   0  0  0  0  0  4           0  0  0
    1.4661    0.0000    0.0000 C   0  0  0  0  0  4           0  0  0
   -2.0330    0.0640    1.4064 C   0  0  0  0  0  4           0  0  0
   -2.0770   -1.1237   -0.7511 C   0  0  0  0  0  4           0  0  0
   -0.5065    0.0000    1.3840 C   0  0  0  0  0  4           0  0  0
   -0.5469   -1.1576   -0.7321 C   0  0  0  0  0  4           0  0  0
    8.8259   -2.6442   -5.7573 C   0  0  0  0  0  4           0  0  0
  1 12  1  0     0  0
  2 26  1  0     0  0
  3 26  1  0     0  0
  4 26  1  0     0  0
  5 27  2  0     0  0
  6  7  1  0     0  0
  6 15  1  0     0  0
  7 13  2  0     0  0
  8 14  1  0     0  0
  8 16  2  0     0  0
  9 13  1  0     0  0
  9 14  1  0     0  0
 10 27  1  0     0  0
 10 29  1  0     0  0
 10 30  1  0     0  0
 11 28  1  0     0  0
 11 31  1  0     0  0
 11 32  1  0     0  0
 12 17  1  0     0  0
 12 18  2  0     0  0
 13 19  1  0     0  0
 14 20  2  0     0  0
 15 19  2  0     0  0
 15 33  1  0     0  0
 16 21  1  0     0  0
 16 28  1  0     0  0
 17 22  2  0     0  0
 17 26  1  0     0  0
 18 23  1  0     0  0
 18 27  1  0     0  0
 20 24  1  0     0  0
 21 24  2  0     0  0
 22 25  1  0     0  0
 23 25  2  0     0  0
 29 31  1  0     0  0
 30 32  1  0     0  0
M  END
> <standard_type>
pIC50

> <# Confs.>
25

> <canonical_smiles>
FC(F)(F)C1=CC=CC(C(N2CCN(CC3=NC(NC4=NNC(C)=C4)=CC=C3)CC2)=O)=C1F

> <standard_relation>
=

> <Publication_ID>
nan

> <predicted_activity_value>
6.292429823902063

> <actual_activity_value>
6.229147988357855

> <Compound>
19

> <standard_units>
nM

> hash
11576136930478842395

$$$$
19_
XXILIB    08252103493D 0   0.00000     0.00000

 33 36  0     1  0            999 V2000
   -5.7796   -1.2633   -0.7118 F   0  0  0  0  0  1           0  0  0
   -7.3163   -1.8168   -2.3119 F   0  0  0  0  0  1           0  0  0
   -6.6869   -3.3786   -3.6870 F   0  0  0  0  0  1           0  0  0
   -8.1427   -3.8196   -2.1401 F   0  0  0  0  0  1           0  0  0
   -4.1851   -1.5539    2.2172 O   0  0  0  0  0  2           0  0  0
    7.0936   -0.8705   -5.4730 N   0  0  0  0  0  3           0  0  0
    5.9732   -0.5439   -4.8127 N   0  0  0  0  0  3           0  0  0
    3.0815   -0.8567   -1.6210 N   0  0  0  0  0  3           0  0  0
    4.7167   -1.7702   -3.1415 N   0  0  0  0  0  3           0  0  0
   -2.6181   -1.0068    0.6058 N   0  0  2  0  0  3           0  0  0
    0.0000   -0.0000    0.0000 N   0  0  2  0  0  3           0  0  0
   -5.3068   -2.5172   -0.6275 C   0  0  0  0  0  4           0  0  0
    5.7407   -1.6009   -4.0191 C   0  0  0  0  0  4           0  0  0
    3.6550   -0.8791   -2.8540 C   0  0  0  0  0  4           0  0  0
    7.5973   -2.0956   -5.1452 C   0  0  0  0  0  4           0  0  0
    2.0539    0.0000   -1.3903 C   0  0  0  0  0  4           0  0  0
   -5.8811   -3.4994   -1.4455 C   0  0  0  0  0  4           0  0  0
   -4.2631   -2.8193    0.2580 C   0  0  0  0  0  4           0  0  0
    6.7377   -2.5970   -4.1953 C   0  0  0  0  0  4           0  0  0
    3.1997   -0.0436   -3.8758 C   0  0  0  0  0  4           0  0  0
    1.5646    0.8626   -2.3635 C   0  0  0  0  0  4           0  0  0
   -5.3976   -4.8076   -1.3679 C   0  0  0  0  0  4           0  0  0
   -3.7925   -4.1364    0.3188 C   0  0  0  0  0  4           0  0  0
    2.1492    0.8327   -3.6218 C   0  0  0  0  0  4           0  0  0
   -4.3598   -5.1232   -0.4908 C   0  0  0  0  0  4           0  0  0
   -6.9889   -3.1366   -2.3808 C   0  0  2  0  0  4           0  0  0
   -3.6827   -1.7440    1.1092 C   0  0  0  0  0  4           0  0  0
    1.4661    0.0000    0.0000 C   0  0  0  0  0  4           0  0  0
   -2.0330    0.0640    1.4064 C   0  0  0  0  0  4           0  0  0
   -2.0770   -1.1237   -0.7511 C   0  0  0  0  0  4           0  0  0
   -0.5065    0.0000    1.3840 C   0  0  0  0  0  4           0  0  0
   -0.5469   -1.1576   -0.7321 C   0  0  0  0  0  4           0  0  0
    8.8259   -2.6442   -5.7573 C   0  0  0  0  0  4           0  0  0
  1 12  1  0     0  0
  2 26  1  0     0  0
  3 26  1  0     0  0
  4 26  1  0     0  0
  5 27  2  0     0  0
  6  7  1  0     0  0
  6 15  1  0     0  0
  7 13  2  0     0  0
  8 14  1  0     0  0
  8 16  2  0     0  0
  9 13  1  0     0  0
  9 14  1  0     0  0
 10 27  1  0     0  0
 10 29  1  0     0  0
 10 30  1  0     0  0
 11 28  1  0     0  0
 11 31  1  0     0  0
 11 32  1  0     0  0
 12 17  1  0     0  0
 12 18  2  0     0  0
 13 19  1  0     0  0
 14 20  2  0     0  0
 15 19  2  0     0  0
 15 33  1  0     0  0
 16 21  1  0     0  0
 16 28  1  0     0  0
 17 22  2  0     0  0
 17 26  1  0     0  0
 18 23  1  0     0  0
 18 27  1  0     0  0
 20 24  1  0     0  0
 21 24  2  0     0  0
 22 25  1  0     0  0
 23 25  2  0     0  0
 29 31  1  0     0  0
 30 32  1  0     0  0
M  END
> <standard_type>
pIC50

> <# Confs.>
25

> <canonical_smiles>
FC(F)(F)C1=CC=CC(C(N2CCN(CC3=NC(NC4=NNC(C)=C4)=CC=C3)CC2)=O)=C1F

> <standard_relation>
=

> <Publication_ID>
nan

> <predicted_activity_value>
6.292429823902063

> <actual_activity_value>
6.229147988357855

> <Compound>
19

> <standard_units>
nM

> hash
11576136930478842395

$$$$
19_
XXILIB    08252103493D 0   0.00000     0.00000

 33 36  0     1  0            999 V2000
   -2.7637   -4.4069    1.2029 F   0  0  0  0  0  1           0  0  0
   -2.7183   -6.6163    0.6158 F   0  0  0  0  0  1           0  0  0
   -4.6483   -7.4638    0.0836 F   0  0  0  0  0  1           0  0  0
   -3.1938   -7.0252   -1.4652 F   0  0  0  0  0  1           0  0  0
   -4.1851   -1.5539    2.2172 O   0  0  0  0  0  2           0  0  0
    4.6248    4.6835    5.7190 N   0  0  0  0  0  3           0  0  0
    4.4321    4.0222    4.5686 N   0  0  0  0  0  3           0  0  0
    2.2924    1.0869    2.0265 N   0  0  0  0  0  3           0  0  0
    3.0853    2.0659    4.0840 N   0  0  0  0  0  3           0  0  0
   -2.6181   -1.0068    0.6058 N   0  0  2  0  0  3           0  0  0
    0.0000   -0.0000    0.0000 N   0  0  2  0  0  3           0  0  0
   -3.7611   -4.1247    0.3492 C   0  0  0  0  0  4           0  0  0
    3.5943    3.0273    4.8990 C   0  0  0  0  0  4           0  0  0
    2.8048    2.1522    2.6991 C   0  0  0  0  0  4           0  0  0
    3.9510    4.1594    6.7835 C   0  0  0  0  0  4           0  0  0
    2.0539    1.2040    0.6952 C   0  0  0  0  0  4           0  0  0
   -4.2786   -5.1652   -0.4339 C   0  0  0  0  0  4           0  0  0
   -4.2631   -2.8193    0.2580 C   0  0  0  0  0  4           0  0  0
    3.2657    3.0779    6.2799 C   0  0  0  0  0  4           0  0  0
    3.0903    3.3501    2.0414 C   0  0  0  0  0  4           0  0  0
    2.3072    2.3733   -0.0114 C   0  0  0  0  0  4           0  0  0
   -5.3169   -4.8849   -1.3252 C   0  0  0  0  0  4           0  0  0
   -5.3050   -2.5605   -0.6406 C   0  0  0  0  0  4           0  0  0
    2.8350    3.4560    0.6776 C   0  0  0  0  0  4           0  0  0
   -5.8263   -3.5903   -1.4273 C   0  0  0  0  0  4           0  0  0
   -3.7199   -6.5453   -0.3039 C   0  0  2  0  0  4           0  0  0
   -3.6827   -1.7440    1.1092 C   0  0  0  0  0  4           0  0  0
    1.4661    0.0000   -0.0000 C   0  0  0  0  0  4           0  0  0
   -2.0330    0.0640    1.4064 C   0  0  0  0  0  4           0  0  0
   -2.0770   -1.1237   -0.7511 C   0  0  0  0  0  4           0  0  0
   -0.5065    0.0000    1.3840 C   0  0  0  0  0  4           0  0  0
   -0.5469   -1.1576   -0.7321 C   0  0  0  0  0  4           0  0  0
    4.0264    4.7393    8.1410 C   0  0  0  0  0  4           0  0  0
  1 12  1  0     0  0
  2 26  1  0     0  0
  3 26  1  0     0  0
  4 26  1  0     0  0
  5 27  2  0     0  0
  6  7  1  0     0  0
  6 15  1  0     0  0
  7 13  2  0     0  0
  8 14  1  0     0  0
  8 16  2  0     0  0
  9 13  1  0     0  0
  9 14  1  0     0  0
 10 27  1  0     0  0
 10 29  1  0     0  0
 10 30  1  0     0  0
 11 28  1  0     0  0
 11 31  1  0     0  0
 11 32  1  0     0  0
 12 17  1  0     0  0
 12 18  2  0     0  0
 13 19  1  0     0  0
 14 20  2  0     0  0
 15 19  2  0     0  0
 15 33  1  0     0  0
 16 21  1  0     0  0
 16 28  1  0     0  0
 17 22  2  0     0  0
 17 26  1  0     0  0
 18 23  1  0     0  0
 18 27  1  0     0  0
 20 24  1  0     0  0
 21 24  2  0     0  0
 22 25  1  0     0  0
 23 25  2  0     0  0
 29 31  1  0     0  0
 30 32  1  0     0  0
M  END
> <standard_type>
pIC50

> <# Confs.>
25

> <canonical_smiles>
FC(F)(F)C1=CC=CC(C(N2CCN(CC3=NC(NC4=NNC(C)=C4)=CC=C3)CC2)=O)=C1F

> <standard_relation>
=

> <Publication_ID>
nan

> <predicted_activity_value>
6.292429823902063

> <actual_activity_value>
6.229147988357855

> <Compound>
19

> <standard_units>
nM

> hash
11576136930478842395

$$$$
19_
XXILIB    08252103493D 0   0.00000     0.00000

 33 36  0     1  0            999 V2000
   -2.7637   -4.4069    1.2029 F   0  0  0  0  0  1           0  0  0
   -2.7183   -6.6163    0.6158 F   0  0  0  0  0  1           0  0  0
   -4.6483   -7.4638    0.0836 F   0  0  0  0  0  1           0  0  0
   -3.1938   -7.0252   -1.4652 F   0  0  0  0  0  1           0  0  0
   -4.1851   -1.5539    2.2172 O   0  0  0  0  0  2           0  0  0
    5.0841    3.9494    5.8046 N   0  0  0  0  0  3           0  0  0
    4.3765    3.6138    4.7161 N   0  0  0  0  0  3           0  0  0
    3.0815    0.9755    1.5524 N   0  0  0  0  0  3           0  0  0
    4.7162    1.8354    3.1044 N   0  0  0  0  0  3           0  0  0
   -2.6181   -1.0068    0.6058 N   0  0  2  0  0  3           0  0  0
    0.0000   -0.0000    0.0000 N   0  0  2  0  0  3           0  0  0
   -3.7611   -4.1247    0.3492 C   0  0  0  0  0  4           0  0  0
    5.0302    2.5547    4.2141 C   0  0  0  0  0  4           0  0  0
    3.6313    2.0279    2.2156 C   0  0  0  0  0  4           0  0  0
    6.1713    3.1561    6.0297 C   0  0  0  0  0  4           0  0  0
    2.0539    1.2040    0.6952 C   0  0  0  0  0  4           0  0  0
   -4.2786   -5.1652   -0.4339 C   0  0  0  0  0  4           0  0  0
   -4.2631   -2.8193    0.2580 C   0  0  0  0  0  4           0  0  0
    6.1621    2.2330    5.0096 C   0  0  0  0  0  4           0  0  0
    3.1592    3.3275    2.0224 C   0  0  0  0  0  4           0  0  0
    1.5342    2.4728    0.4698 C   0  0  0  0  0  4           0  0  0
   -5.3169   -4.8849   -1.3252 C   0  0  0  0  0  4           0  0  0
   -5.3050   -2.5605   -0.6406 C   0  0  0  0  0  4           0  0  0
    2.1016    3.5445    1.1445 C   0  0  0  0  0  4           0  0  0
   -5.8263   -3.5903   -1.4273 C   0  0  0  0  0  4           0  0  0
   -3.7199   -6.5453   -0.3039 C   0  0  2  0  0  4           0  0  0
   -3.6827   -1.7440    1.1092 C   0  0  0  0  0  4           0  0  0
    1.4661   -0.0000    0.0000 C   0  0  0  0  0  4           0  0  0
   -2.0330    0.0640    1.4064 C   0  0  0  0  0  4           0  0  0
   -2.0770   -1.1237   -0.7511 C   0  0  0  0  0  4           0  0  0
   -0.5065    0.0000    1.3840 C   0  0  0  0  0  4           0  0  0
   -0.5469   -1.1576   -0.7321 C   0  0  0  0  0  4           0  0  0
    7.0823    3.3557    7.1765 C   0  0  0  0  0  4           0  0  0
  1 12  1  0     0  0
  2 26  1  0     0  0
  3 26  1  0     0  0
  4 26  1  0     0  0
  5 27  2  0     0  0
  6  7  1  0     0  0
  6 15  1  0     0  0
  7 13  2  0     0  0
  8 14  1  0     0  0
  8 16  2  0     0  0
  9 13  1  0     0  0
  9 14  1  0     0  0
 10 27  1  0     0  0
 10 29  1  0     0  0
 10 30  1  0     0  0
 11 28  1  0     0  0
 11 31  1  0     0  0
 11 32  1  0     0  0
 12 17  1  0     0  0
 12 18  2  0     0  0
 13 19  1  0     0  0
 14 20  2  0     0  0
 15 19  2  0     0  0
 15 33  1  0     0  0
 16 21  1  0     0  0
 16 28  1  0     0  0
 17 22  2  0     0  0
 17 26  1  0     0  0
 18 23  1  0     0  0
 18 27  1  0     0  0
 20 24  1  0     0  0
 21 24  2  0     0  0
 22 25  1  0     0  0
 23 25  2  0     0  0
 29 31  1  0     0  0
 30 32  1  0     0  0
M  END
> <standard_type>
pIC50

> <# Confs.>
25

> <canonical_smiles>
FC(F)(F)C1=CC=CC(C(N2CCN(CC3=NC(NC4=NNC(C)=C4)=CC=C3)CC2)=O)=C1F

> <standard_relation>
=

> <Publication_ID>
nan

> <predicted_activity_value>
6.292429823902063

> <actual_activity_value>
6.229147988357855

> <Compound>
19

> <standard_units>
nM

> hash
11576136930478842395

$$$$
19_
XXILIB    08252103493D 0   0.00000     0.00000

 33 36  0     1  0            999 V2000
   -5.7796   -1.2633   -0.7118 F   0  0  0  0  0  1           0  0  0
   -7.3163   -1.8168   -2.3119 F   0  0  0  0  0  1           0  0  0
   -6.6869   -3.3786   -3.6870 F   0  0  0  0  0  1           0  0  0
   -8.1427   -3.8196   -2.1401 F   0  0  0  0  0  1           0  0  0
   -4.1851   -1.5539    2.2172 O   0  0  0  0  0  2           0  0  0
    4.6248    4.6835    5.7190 N   0  0  0  0  0  3           0  0  0
    4.4321    4.0222    4.5686 N   0  0  0  0  0  3           0  0  0
    2.2924    1.0869    2.0265 N   0  0  0  0  0  3           0  0  0
    3.0853    2.0659    4.0840 N   0  0  0  0  0  3           0  0  0
   -2.6181   -1.0068    0.6058 N   0  0  2  0  0  3           0  0  0
    0.0000   -0.0000    0.0000 N   0  0  2  0  0  3           0  0  0
   -5.3068   -2.5172   -0.6275 C   0  0  0  0  0  4           0  0  0
    3.5943    3.0273    4.8990 C   0  0  0  0  0  4           0  0  0
    2.8048    2.1522    2.6991 C   0  0  0  0  0  4           0  0  0
    3.9510    4.1594    6.7835 C   0  0  0  0  0  4           0  0  0
    2.0539    1.2040    0.6952 C   0  0  0  0  0  4           0  0  0
   -5.8811   -3.4994   -1.4455 C   0  0  0  0  0  4           0  0  0
   -4.2631   -2.8193    0.2580 C   0  0  0  0  0  4           0  0  0
    3.2657    3.0779    6.2799 C   0  0  0  0  0  4           0  0  0
    3.0903    3.3501    2.0414 C   0  0  0  0  0  4           0  0  0
    2.3072    2.3733   -0.0114 C   0  0  0  0  0  4           0  0  0
   -5.3976   -4.8076   -1.3679 C   0  0  0  0  0  4           0  0  0
   -3.7925   -4.1364    0.3188 C   0  0  0  0  0  4           0  0  0
    2.8350    3.4560    0.6776 C   0  0  0  0  0  4           0  0  0
   -4.3598   -5.1232   -0.4908 C   0  0  0  0  0  4           0  0  0
   -6.9889   -3.1366   -2.3808 C   0  0  2  0  0  4           0  0  0
   -3.6827   -1.7440    1.1092 C   0  0  0  0  0  4           0  0  0
    1.4661    0.0000   -0.0000 C   0  0  0  0  0  4           0  0  0
   -2.0330    0.0640    1.4064 C   0  0  0  0  0  4           0  0  0
   -2.0770   -1.1237   -0.7511 C   0  0  0  0  0  4           0  0  0
   -0.5065    0.0000    1.3840 C   0  0  0  0  0  4           0  0  0
   -0.5469   -1.1576   -0.7321 C   0  0  0  0  0  4           0  0  0
    4.0264    4.7393    8.1410 C   0  0  0  0  0  4           0  0  0
  1 12  1  0     0  0
  2 26  1  0     0  0
  3 26  1  0     0  0
  4 26  1  0     0  0
  5 27  2  0     0  0
  6  7  1  0     0  0
  6 15  1  0     0  0
  7 13  2  0     0  0
  8 14  1  0     0  0
  8 16  2  0     0  0
  9 13  1  0     0  0
  9 14  1  0     0  0
 10 27  1  0     0  0
 10 29  1  0     0  0
 10 30  1  0     0  0
 11 28  1  0     0  0
 11 31  1  0     0  0
 11 32  1  0     0  0
 12 17  1  0     0  0
 12 18  2  0     0  0
 13 19  1  0     0  0
 14 20  2  0     0  0
 15 19  2  0     0  0
 15 33  1  0     0  0
 16 21  1  0     0  0
 16 28  1  0     0  0
 17 22  2  0     0  0
 17 26  1  0     0  0
 18 23  1  0     0  0
 18 27  1  0     0  0
 20 24  1  0     0  0
 21 24  2  0     0  0
 22 25  1  0     0  0
 23 25  2  0     0  0
 29 31  1  0     0  0
 30 32  1  0     0  0
M  END
> <standard_type>
pIC50

> <# Confs.>
25

> <canonical_smiles>
FC(F)(F)C1=CC=CC(C(N2CCN(CC3=NC(NC4=NNC(C)=C4)=CC=C3)CC2)=O)=C1F

> <standard_relation>
=

> <Publication_ID>
nan

> <predicted_activity_value>
6.292429823902063

> <actual_activity_value>
6.229147988357855

> <Compound>
19

> <standard_units>
nM

> hash
11576136930478842395

$$$$
19_
XXILIB    08252103493D 0   0.00000     0.00000

 33 36  0     1  0            999 V2000
   -5.7796   -1.2633   -0.7118 F   0  0  0  0  0  1           0  0  0
   -7.3163   -1.8168   -2.3119 F   0  0  0  0  0  1           0  0  0
   -6.6869   -3.3786   -3.6870 F   0  0  0  0  0  1           0  0  0
   -8.1427   -3.8196   -2.1401 F   0  0  0  0  0  1           0  0  0
   -4.1851   -1.5539    2.2172 O   0  0  0  0  0  2           0  0  0
    5.0841    3.9494    5.8046 N   0  0  0  0  0  3           0  0  0
    4.3765    3.6138    4.7161 N   0  0  0  0  0  3           0  0  0
    3.0815    0.9755    1.5524 N   0  0  0  0  0  3           0  0  0
    4.7162    1.8354    3.1044 N   0  0  0  0  0  3           0  0  0
   -2.6181   -1.0068    0.6058 N   0  0  2  0  0  3           0  0  0
    0.0000   -0.0000    0.0000 N   0  0  2  0  0  3           0  0  0
   -5.3068   -2.5172   -0.6275 C   0  0  0  0  0  4           0  0  0
    5.0302    2.5547    4.2141 C   0  0  0  0  0  4           0  0  0
    3.6313    2.0279    2.2156 C   0  0  0  0  0  4           0  0  0
    6.1713    3.1561    6.0297 C   0  0  0  0  0  4           0  0  0
    2.0539    1.2040    0.6952 C   0  0  0  0  0  4           0  0  0
   -5.8811   -3.4994   -1.4455 C   0  0  0  0  0  4           0  0  0
   -4.2631   -2.8193    0.2580 C   0  0  0  0  0  4           0  0  0
    6.1621    2.2330    5.0096 C   0  0  0  0  0  4           0  0  0
    3.1592    3.3275    2.0224 C   0  0  0  0  0  4           0  0  0
    1.5342    2.4728    0.4698 C   0  0  0  0  0  4           0  0  0
   -5.3976   -4.8076   -1.3679 C   0  0  0  0  0  4           0  0  0
   -3.7925   -4.1364    0.3188 C   0  0  0  0  0  4           0  0  0
    2.1016    3.5445    1.1445 C   0  0  0  0  0  4           0  0  0
   -4.3598   -5.1232   -0.4908 C   0  0  0  0  0  4           0  0  0
   -6.9889   -3.1366   -2.3808 C   0  0  2  0  0  4           0  0  0
   -3.6827   -1.7440    1.1092 C   0  0  0  0  0  4           0  0  0
    1.4661   -0.0000    0.0000 C   0  0  0  0  0  4           0  0  0
   -2.0330    0.0640    1.4064 C   0  0  0  0  0  4           0  0  0
   -2.0770   -1.1237   -0.7511 C   0  0  0  0  0  4           0  0  0
   -0.5065    0.0000    1.3840 C   0  0  0  0  0  4           0  0  0
   -0.5469   -1.1576   -0.7321 C   0  0  0  0  0  4           0  0  0
    7.0823    3.3557    7.1765 C   0  0  0  0  0  4           0  0  0
  1 12  1  0     0  0
  2 26  1  0     0  0
  3 26  1  0     0  0
  4 26  1  0     0  0
  5 27  2  0     0  0
  6  7  1  0     0  0
  6 15  1  0     0  0
  7 13  2  0     0  0
  8 14  1  0     0  0
  8 16  2  0     0  0
  9 13  1  0     0  0
  9 14  1  0     0  0
 10 27  1  0     0  0
 10 29  1  0     0  0
 10 30  1  0     0  0
 11 28  1  0     0  0
 11 31  1  0     0  0
 11 32  1  0     0  0
 12 17  1  0     0  0
 12 18  2  0     0  0
 13 19  1  0     0  0
 14 20  2  0     0  0
 15 19  2  0     0  0
 15 33  1  0     0  0
 16 21  1  0     0  0
 16 28  1  0     0  0
 17 22  2  0     0  0
 17 26  1  0     0  0
 18 23  1  0     0  0
 18 27  1  0     0  0
 20 24  1  0     0  0
 21 24  2  0     0  0
 22 25  1  0     0  0
 23 25  2  0     0  0
 29 31  1  0     0  0
 30 32  1  0     0  0
M  END
> <standard_type>
pIC50

> <# Confs.>
25

> <canonical_smiles>
FC(F)(F)C1=CC=CC(C(N2CCN(CC3=NC(NC4=NNC(C)=C4)=CC=C3)CC2)=O)=C1F

> <standard_relation>
=

> <Publication_ID>
nan

> <predicted_activity_value>
6.292429823902063

> <actual_activity_value>
6.229147988357855

> <Compound>
19

> <standard_units>
nM

> hash
11576136930478842395

$$$$
19_
XXILIB    08252103493D 0   0.00000     0.00000

 33 36  0     1  0            999 V2000
   -6.3724   -1.7182    0.2671 F   0  0  0  0  0  1           0  0  0
   -8.2226   -2.5100   -0.8181 F   0  0  0  0  0  1           0  0  0
   -7.8148   -3.5761   -2.6684 F   0  0  0  0  0  1           0  0  0
   -8.3911   -4.6758   -0.8892 F   0  0  0  0  0  1           0  0  0
   -4.1851   -1.5539    2.2172 O   0  0  0  0  0  2           0  0  0
    4.2258   -2.6110   -7.0843 N   0  0  0  0  0  3           0  0  0
    3.5366   -1.9454   -6.1462 N   0  0  0  0  0  3           0  0  0
    2.2924   -1.2115   -1.9545 N   0  0  0  0  0  3           0  0  0
    3.0860   -2.5039   -3.8309 N   0  0  0  0  0  3           0  0  0
   -2.6181   -1.0068    0.6058 N   0  0  2  0  0  3           0  0  0
    0.0000   -0.0000    0.0000 N   0  0  2  0  0  3           0  0  0
   -5.6093   -2.7506   -0.1264 C   0  0  0  0  0  4           0  0  0
    3.6209   -2.7290   -5.0600 C   0  0  0  0  0  4           0  0  0
    2.8383   -1.2614   -3.1992 C   0  0  0  0  0  4           0  0  0
    4.7515   -3.7950   -6.6554 C   0  0  0  0  0  4           0  0  0
    2.0539    0.0000   -1.3903 C   0  0  0  0  0  4           0  0  0
   -6.1944   -3.7414   -0.9262 C   0  0  0  0  0  4           0  0  0
   -4.2631   -2.8193    0.2580 C   0  0  0  0  0  4           0  0  0
    4.3766   -3.8996   -5.3359 C   0  0  0  0  0  4           0  0  0
    3.1477   -0.0928   -3.8978 C   0  0  0  0  0  4           0  0  0
    2.3502    1.1965   -2.0314 C   0  0  0  0  0  4           0  0  0
   -5.4109   -4.8201   -1.3430 C   0  0  0  0  0  4           0  0  0
   -3.4955   -3.9082   -0.1720 C   0  0  0  0  0  4           0  0  0
    2.9022    1.1412   -3.3034 C   0  0  0  0  0  4           0  0  0
   -4.0699   -4.9022   -0.9677 C   0  0  0  0  0  4           0  0  0
   -7.6319   -3.6297   -1.3194 C   0  0  2  0  0  4           0  0  0
   -3.6827   -1.7440    1.1092 C   0  0  0  0  0  4           0  0  0
    1.4661    0.0000    0.0000 C   0  0  0  0  0  4           0  0  0
   -2.0330    0.0640    1.4064 C   0  0  0  0  0  4           0  0  0
   -2.0770   -1.1237   -0.7511 C   0  0  0  0  0  4           0  0  0
   -0.5065    0.0000    1.3840 C   0  0  0  0  0  4           0  0  0
   -0.5469   -1.1576   -0.7321 C   0  0  0  0  0  4           0  0  0
    5.5460   -4.6807   -7.5324 C   0  0  0  0  0  4           0  0  0
  1 12  1  0     0  0
  2 26  1  0     0  0
  3 26  1  0     0  0
  4 26  1  0     0  0
  5 27  2  0     0  0
  6  7  1  0     0  0
  6 15  1  0     0  0
  7 13  2  0     0  0
  8 14  1  0     0  0
  8 16  2  0     0  0
  9 13  1  0     0  0
  9 14  1  0     0  0
 10 27  1  0     0  0
 10 29  1  0     0  0
 10 30  1  0     0  0
 11 28  1  0     0  0
 11 31  1  0     0  0
 11 32  1  0     0  0
 12 17  1  0     0  0
 12 18  2  0     0  0
 13 19  1  0     0  0
 14 20  2  0     0  0
 15 19  2  0     0  0
 15 33  1  0     0  0
 16 21  1  0     0  0
 16 28  1  0     0  0
 17 22  2  0     0  0
 17 26  1  0     0  0
 18 23  1  0     0  0
 18 27  1  0     0  0
 20 24  1  0     0  0
 21 24  2  0     0  0
 22 25  1  0     0  0
 23 25  2  0     0  0
 29 31  1  0     0  0
 30 32  1  0     0  0
M  END
> <standard_type>
pIC50

> <# Confs.>
25

> <canonical_smiles>
FC(F)(F)C1=CC=CC(C(N2CCN(CC3=NC(NC4=NNC(C)=C4)=CC=C3)CC2)=O)=C1F

> <standard_relation>
=

> <Publication_ID>
nan

> <predicted_activity_value>
6.292429823902063

> <actual_activity_value>
6.229147988357855

> <Compound>
19

> <standard_units>
nM

> hash
11576136930478842395

$$$$
19_
XXILIB    08252103493D 0   0.00000     0.00000

 33 36  0     1  0            999 V2000
   -3.7606   -4.4407    1.9253 F   0  0  0  0  0  1           0  0  0
   -4.2407   -6.6665    1.7173 F   0  0  0  0  0  1           0  0  0
   -6.0493   -7.1141    0.5971 F   0  0  0  0  0  1           0  0  0
   -4.1052   -7.4519   -0.3047 F   0  0  0  0  0  1           0  0  0
   -4.1851   -1.5539    2.2172 O   0  0  0  0  0  2           0  0  0
    4.2258   -2.6110   -7.0843 N   0  0  0  0  0  3           0  0  0
    3.5366   -1.9454   -6.1462 N   0  0  0  0  0  3           0  0  0
    2.2924   -1.2115   -1.9545 N   0  0  0  0  0  3           0  0  0
    3.0860   -2.5039   -3.8309 N   0  0  0  0  0  3           0  0  0
   -2.6181   -1.0068    0.6058 N   0  0  2  0  0  3           0  0  0
    0.0000   -0.0000    0.0000 N   0  0  2  0  0  3           0  0  0
   -4.2706   -4.1428    0.7194 C   0  0  0  0  0  4           0  0  0
    3.6209   -2.7290   -5.0600 C   0  0  0  0  0  4           0  0  0
    2.8383   -1.2614   -3.1992 C   0  0  0  0  0  4           0  0  0
    4.7515   -3.7950   -6.6554 C   0  0  0  0  0  4           0  0  0
    2.0539    0.0000   -1.3903 C   0  0  0  0  0  4           0  0  0
   -4.8066   -5.1840   -0.0501 C   0  0  0  0  0  4           0  0  0
   -4.2631   -2.8193    0.2580 C   0  0  0  0  0  4           0  0  0
    4.3766   -3.8996   -5.3359 C   0  0  0  0  0  4           0  0  0
    3.1477   -0.0928   -3.8978 C   0  0  0  0  0  4           0  0  0
    2.3502    1.1965   -2.0314 C   0  0  0  0  0  4           0  0  0
   -5.3411   -4.8871   -1.3060 C   0  0  0  0  0  4           0  0  0
   -4.8053   -2.5434   -1.0029 C   0  0  0  0  0  4           0  0  0
    2.9022    1.1412   -3.3034 C   0  0  0  0  0  4           0  0  0
   -5.3399   -3.5747   -1.7787 C   0  0  0  0  0  4           0  0  0
   -4.8009   -6.5817    0.4792 C   0  0  2  0  0  4           0  0  0
   -3.6827   -1.7440    1.1092 C   0  0  0  0  0  4           0  0  0
    1.4661    0.0000    0.0000 C   0  0  0  0  0  4           0  0  0
   -2.0330    0.0640    1.4064 C   0  0  0  0  0  4           0  0  0
   -2.0770   -1.1237   -0.7511 C   0  0  0  0  0  4           0  0  0
   -0.5065    0.0000    1.3840 C   0  0  0  0  0  4           0  0  0
   -0.5469   -1.1576   -0.7321 C   0  0  0  0  0  4           0  0  0
    5.5460   -4.6807   -7.5324 C   0  0  0  0  0  4           0  0  0
  1 12  1  0     0  0
  2 26  1  0     0  0
  3 26  1  0     0  0
  4 26  1  0     0  0
  5 27  2  0     0  0
  6  7  1  0     0  0
  6 15  1  0     0  0
  7 13  2  0     0  0
  8 14  1  0     0  0
  8 16  2  0     0  0
  9 13  1  0     0  0
  9 14  1  0     0  0
 10 27  1  0     0  0
 10 29  1  0     0  0
 10 30  1  0     0  0
 11 28  1  0     0  0
 11 31  1  0     0  0
 11 32  1  0     0  0
 12 17  1  0     0  0
 12 18  2  0     0  0
 13 19  1  0     0  0
 14 20  2  0     0  0
 15 19  2  0     0  0
 15 33  1  0     0  0
 16 21  1  0     0  0
 16 28  1  0     0  0
 17 22  2  0     0  0
 17 26  1  0     0  0
 18 23  1  0     0  0
 18 27  1  0     0  0
 20 24  1  0     0  0
 21 24  2  0     0  0
 22 25  1  0     0  0
 23 25  2  0     0  0
 29 31  1  0     0  0
 30 32  1  0     0  0
M  END
> <standard_type>
pIC50

> <# Confs.>
25

> <canonical_smiles>
FC(F)(F)C1=CC=CC(C(N2CCN(CC3=NC(NC4=NNC(C)=C4)=CC=C3)CC2)=O)=C1F

> <standard_relation>
=

> <Publication_ID>
nan

> <predicted_activity_value>
6.292429823902063

> <actual_activity_value>
6.229147988357855

> <Compound>
19

> <standard_units>
nM

> hash
11576136930478842395

$$$$
19_
XXILIB    08252103493D 0   0.00000     0.00000

 33 36  0     1  0            999 V2000
   -0.2944   -5.8293    1.4682 F   0  0  0  0  0  1           0  0  0
    0.0388   -7.9230    0.6116 F   0  0  0  0  0  1           0  0  0
   -1.7647   -9.1124    0.3687 F   0  0  0  0  0  1           0  0  0
   -0.7939   -8.2498   -1.3692 F   0  0  0  0  0  1           0  0  0
   -1.9731   -3.4350    3.0923 O   0  0  0  0  0  2           0  0  0
    4.2258   -2.6110   -7.0843 N   0  0  0  0  0  3           0  0  0
    3.5366   -1.9454   -6.1462 N   0  0  0  0  0  3           0  0  0
    2.2924   -1.2115   -1.9545 N   0  0  0  0  0  3           0  0  0
    3.0860   -2.5039   -3.8309 N   0  0  0  0  0  3           0  0  0
   -0.9288   -2.4378    1.2850 N   0  0  2  0  0  3           0  0  0
    0.0000   -0.0000    0.0000 N   0  0  2  0  0  3           0  0  0
   -1.4891   -5.6948    0.8703 C   0  0  0  0  0  4           0  0  0
    3.6209   -2.7290   -5.0600 C   0  0  0  0  0  4           0  0  0
    2.8383   -1.2614   -3.1992 C   0  0  0  0  0  4           0  0  0
    4.7515   -3.7950   -6.6554 C   0  0  0  0  0  4           0  0  0
    2.0539    0.0000   -1.3903 C   0  0  0  0  0  4           0  0  0
   -1.9589   -6.7528    0.0806 C   0  0  0  0  0  4           0  0  0
   -2.2367   -4.5220    1.0442 C   0  0  0  0  0  4           0  0  0
    4.3766   -3.8996   -5.3359 C   0  0  0  0  0  4           0  0  0
    3.1477   -0.0928   -3.8978 C   0  0  0  0  0  4           0  0  0
    2.3502    1.1965   -2.0314 C   0  0  0  0  0  4           0  0  0
   -3.2007   -6.6257   -0.5461 C   0  0  0  0  0  4           0  0  0
   -3.4795   -4.4159    0.4084 C   0  0  0  0  0  4           0  0  0
    2.9022    1.1412   -3.3034 C   0  0  0  0  0  4           0  0  0
   -3.9556   -5.4641   -0.3827 C   0  0  0  0  0  4           0  0  0
   -1.1345   -7.9895   -0.0761 C   0  0  2  0  0  4           0  0  0
   -1.6984   -3.4224    1.8921 C   0  0  0  0  0  4           0  0  0
    1.4661    0.0000    0.0000 C   0  0  0  0  0  4           0  0  0
   -0.3989   -1.3390    2.0890 C   0  0  0  0  0  4           0  0  0
   -0.4610   -2.4773   -0.1046 C   0  0  0  0  0  4           0  0  0
   -0.5482    0.0000    1.3665 C   0  0  0  0  0  4           0  0  0
   -0.5896   -1.1060   -0.7739 C   0  0  0  0  0  4           0  0  0
    5.5460   -4.6807   -7.5324 C   0  0  0  0  0  4           0  0  0
  1 12  1  0     0  0
  2 26  1  0     0  0
  3 26  1  0     0  0
  4 26  1  0     0  0
  5 27  2  0     0  0
  6  7  1  0     0  0
  6 15  1  0     0  0
  7 13  2  0     0  0
  8 14  1  0     0  0
  8 16  2  0     0  0
  9 13  1  0     0  0
  9 14  1  0     0  0
 10 27  1  0     0  0
 10 29  1  0     0  0
 10 30  1  0     0  0
 11 28  1  0     0  0
 11 31  1  0     0  0
 11 32  1  0     0  0
 12 17  1  0     0  0
 12 18  2  0     0  0
 13 19  1  0     0  0
 14 20  2  0     0  0
 15 19  2  0     0  0
 15 33  1  0     0  0
 16 21  1  0     0  0
 16 28  1  0     0  0
 17 22  2  0     0  0
 17 26  1  0     0  0
 18 23  1  0     0  0
 18 27  1  0     0  0
 20 24  1  0     0  0
 21 24  2  0     0  0
 22 25  1  0     0  0
 23 25  2  0     0  0
 29 31  1  0     0  0
 30 32  1  0     0  0
M  END
> <standard_type>
pIC50

> <# Confs.>
25

> <canonical_smiles>
FC(F)(F)C1=CC=CC(C(N2CCN(CC3=NC(NC4=NNC(C)=C4)=CC=C3)CC2)=O)=C1F

> <standard_relation>
=

> <Publication_ID>
nan

> <predicted_activity_value>
6.292429823902063

> <actual_activity_value>
6.229147988357855

> <Compound>
19

> <standard_units>
nM

> hash
11576136930478842395

$$$$
19_
XXILIB    08252103493D 0   0.00000     0.00000

 33 36  0     1  0            999 V2000
   -6.3724   -1.7182    0.2671 F   0  0  0  0  0  1           0  0  0
   -8.2226   -2.5100   -0.8181 F   0  0  0  0  0  1           0  0  0
   -7.8148   -3.5761   -2.6684 F   0  0  0  0  0  1           0  0  0
   -8.3911   -4.6758   -0.8892 F   0  0  0  0  0  1           0  0  0
   -4.1851   -1.5539    2.2172 O   0  0  0  0  0  2           0  0  0
    7.0936   -0.8705   -5.4730 N   0  0  0  0  0  3           0  0  0
    5.9732   -0.5439   -4.8127 N   0  0  0  0  0  3           0  0  0
    3.0815   -0.8567   -1.6210 N   0  0  0  0  0  3           0  0  0
    4.7167   -1.7702   -3.1415 N   0  0  0  0  0  3           0  0  0
   -2.6181   -1.0068    0.6058 N   0  0  2  0  0  3           0  0  0
    0.0000   -0.0000    0.0000 N   0  0  2  0  0  3           0  0  0
   -5.6093   -2.7506   -0.1264 C   0  0  0  0  0  4           0  0  0
    5.7407   -1.6009   -4.0191 C   0  0  0  0  0  4           0  0  0
    3.6550   -0.8791   -2.8540 C   0  0  0  0  0  4           0  0  0
    7.5973   -2.0956   -5.1452 C   0  0  0  0  0  4           0  0  0
    2.0539    0.0000   -1.3903 C   0  0  0  0  0  4           0  0  0
   -6.1944   -3.7414   -0.9262 C   0  0  0  0  0  4           0  0  0
   -4.2631   -2.8193    0.2580 C   0  0  0  0  0  4           0  0  0
    6.7377   -2.5970   -4.1953 C   0  0  0  0  0  4           0  0  0
    3.1997   -0.0436   -3.8758 C   0  0  0  0  0  4           0  0  0
    1.5646    0.8626   -2.3635 C   0  0  0  0  0  4           0  0  0
   -5.4109   -4.8201   -1.3430 C   0  0  0  0  0  4           0  0  0
   -3.4955   -3.9082   -0.1720 C   0  0  0  0  0  4           0  0  0
    2.1492    0.8327   -3.6218 C   0  0  0  0  0  4           0  0  0
   -4.0699   -4.9022   -0.9677 C   0  0  0  0  0  4           0  0  0
   -7.6319   -3.6297   -1.3194 C   0  0  2  0  0  4           0  0  0
   -3.6827   -1.7440    1.1092 C   0  0  0  0  0  4           0  0  0
    1.4661    0.0000    0.0000 C   0  0  0  0  0  4           0  0  0
   -2.0330    0.0640    1.4064 C   0  0  0  0  0  4           0  0  0
   -2.0770   -1.1237   -0.7511 C   0  0  0  0  0  4           0  0  0
   -0.5065    0.0000    1.3840 C   0  0  0  0  0  4           0  0  0
   -0.5469   -1.1576   -0.7321 C   0  0  0  0  0  4           0  0  0
    8.8259   -2.6442   -5.7573 C   0  0  0  0  0  4           0  0  0
  1 12  1  0     0  0
  2 26  1  0     0  0
  3 26  1  0     0  0
  4 26  1  0     0  0
  5 27  2  0     0  0
  6  7  1  0     0  0
  6 15  1  0     0  0
  7 13  2  0     0  0
  8 14  1  0     0  0
  8 16  2  0     0  0
  9 13  1  0     0  0
  9 14  1  0     0  0
 10 27  1  0     0  0
 10 29  1  0     0  0
 10 30  1  0     0  0
 11 28  1  0     0  0
 11 31  1  0     0  0
 11 32  1  0     0  0
 12 17  1  0     0  0
 12 18  2  0     0  0
 13 19  1  0     0  0
 14 20  2  0     0  0
 15 19  2  0     0  0
 15 33  1  0     0  0
 16 21  1  0     0  0
 16 28  1  0     0  0
 17 22  2  0     0  0
 17 26  1  0     0  0
 18 23  1  0     0  0
 18 27  1  0     0  0
 20 24  1  0     0  0
 21 24  2  0     0  0
 22 25  1  0     0  0
 23 25  2  0     0  0
 29 31  1  0     0  0
 30 32  1  0     0  0
M  END
> <standard_type>
pIC50

> <# Confs.>
25

> <canonical_smiles>
FC(F)(F)C1=CC=CC(C(N2CCN(CC3=NC(NC4=NNC(C)=C4)=CC=C3)CC2)=O)=C1F

> <standard_relation>
=

> <Publication_ID>
nan

> <predicted_activity_value>
6.292429823902063

> <actual_activity_value>
6.229147988357855

> <Compound>
19

> <standard_units>
nM

> hash
11576136930478842395

$$$$
19_
XXILIB    08252103493D 0   0.00000     0.00000

 33 36  0     1  0            999 V2000
   -4.1948   -3.2470    0.5953 F   0  0  0  0  0  1           0  0  0
   -5.9110   -3.9787   -0.7266 F   0  0  0  0  0  1           0  0  0
   -5.3135   -5.2531   -2.3835 F   0  0  0  0  0  1           0  0  0
   -6.2856   -6.1181   -0.6475 F   0  0  0  0  0  1           0  0  0
   -1.9731   -3.4350    3.0923 O   0  0  0  0  0  2           0  0  0
    4.2258   -2.6110   -7.0843 N   0  0  0  0  0  3           0  0  0
    3.5366   -1.9454   -6.1462 N   0  0  0  0  0  3           0  0  0
    2.2924   -1.2115   -1.9545 N   0  0  0  0  0  3           0  0  0
    3.0860   -2.5039   -3.8309 N   0  0  0  0  0  3           0  0  0
   -0.9288   -2.4378    1.2850 N   0  0  2  0  0  3           0  0  0
    0.0000   -0.0000    0.0000 N   0  0  2  0  0  3           0  0  0
   -3.4865   -4.3753    0.4270 C   0  0  0  0  0  4           0  0  0
    3.6209   -2.7290   -5.0600 C   0  0  0  0  0  4           0  0  0
    2.8383   -1.2614   -3.1992 C   0  0  0  0  0  4           0  0  0
    4.7515   -3.7950   -6.6554 C   0  0  0  0  0  4           0  0  0
    2.0539    0.0000   -1.3903 C   0  0  0  0  0  4           0  0  0
   -4.0292   -5.3856   -0.3782 C   0  0  0  0  0  4           0  0  0
   -2.2367   -4.5220    1.0442 C   0  0  0  0  0  4           0  0  0
    4.3766   -3.8996   -5.3359 C   0  0  0  0  0  4           0  0  0
    3.1477   -0.0928   -3.8978 C   0  0  0  0  0  4           0  0  0
    2.3502    1.1965   -2.0314 C   0  0  0  0  0  4           0  0  0
   -3.3019   -6.5638   -0.5620 C   0  0  0  0  0  4           0  0  0
   -1.5237   -5.7103    0.8455 C   0  0  0  0  0  4           0  0  0
    2.9022    1.1412   -3.3034 C   0  0  0  0  0  4           0  0  0
   -2.0570   -6.7244    0.0465 C   0  0  0  0  0  4           0  0  0
   -5.3629   -5.1891   -1.0236 C   0  0  2  0  0  4           0  0  0
   -1.6984   -3.4224    1.8921 C   0  0  0  0  0  4           0  0  0
    1.4661    0.0000    0.0000 C   0  0  0  0  0  4           0  0  0
   -0.3989   -1.3390    2.0890 C   0  0  0  0  0  4           0  0  0
   -0.4610   -2.4773   -0.1046 C   0  0  0  0  0  4           0  0  0
   -0.5482    0.0000    1.3665 C   0  0  0  0  0  4           0  0  0
   -0.5896   -1.1060   -0.7739 C   0  0  0  0  0  4           0  0  0
    5.5460   -4.6807   -7.5324 C   0  0  0  0  0  4           0  0  0
  1 12  1  0     0  0
  2 26  1  0     0  0
  3 26  1  0     0  0
  4 26  1  0     0  0
  5 27  2  0     0  0
  6  7  1  0     0  0
  6 15  1  0     0  0
  7 13  2  0     0  0
  8 14  1  0     0  0
  8 16  2  0     0  0
  9 13  1  0     0  0
  9 14  1  0     0  0
 10 27  1  0     0  0
 10 29  1  0     0  0
 10 30  1  0     0  0
 11 28  1  0     0  0
 11 31  1  0     0  0
 11 32  1  0     0  0
 12 17  1  0     0  0
 12 18  2  0     0  0
 13 19  1  0     0  0
 14 20  2  0     0  0
 15 19  2  0     0  0
 15 33  1  0     0  0
 16 21  1  0     0  0
 16 28  1  0     0  0
 17 22  2  0     0  0
 17 26  1  0     0  0
 18 23  1  0     0  0
 18 27  1  0     0  0
 20 24  1  0     0  0
 21 24  2  0     0  0
 22 25  1  0     0  0
 23 25  2  0     0  0
 29 31  1  0     0  0
 30 32  1  0     0  0
M  END
> <standard_type>
pIC50

> <# Confs.>
25

> <canonical_smiles>
FC(F)(F)C1=CC=CC(C(N2CCN(CC3=NC(NC4=NNC(C)=C4)=CC=C3)CC2)=O)=C1F

> <standard_relation>
=

> <Publication_ID>
nan

> <predicted_activity_value>
6.292429823902063

> <actual_activity_value>
6.229147988357855

> <Compound>
19

> <standard_units>
nM

> hash
11576136930478842395

$$$$
19_
XXILIB    08252103493D 0   0.00000     0.00000

 33 36  0     1  0            999 V2000
   -3.7606   -4.4407    1.9253 F   0  0  0  0  0  1           0  0  0
   -4.2407   -6.6665    1.7173 F   0  0  0  0  0  1           0  0  0
   -6.0493   -7.1141    0.5971 F   0  0  0  0  0  1           0  0  0
   -4.1052   -7.4519   -0.3047 F   0  0  0  0  0  1           0  0  0
   -4.1851   -1.5539    2.2172 O   0  0  0  0  0  2           0  0  0
    7.0936   -0.8705   -5.4730 N   0  0  0  0  0  3           0  0  0
    5.9732   -0.5439   -4.8127 N   0  0  0  0  0  3           0  0  0
    3.0815   -0.8567   -1.6210 N   0  0  0  0  0  3           0  0  0
    4.7167   -1.7702   -3.1415 N   0  0  0  0  0  3           0  0  0
   -2.6181   -1.0068    0.6058 N   0  0  2  0  0  3           0  0  0
    0.0000   -0.0000    0.0000 N   0  0  2  0  0  3           0  0  0
   -4.2706   -4.1428    0.7194 C   0  0  0  0  0  4           0  0  0
    5.7407   -1.6009   -4.0191 C   0  0  0  0  0  4           0  0  0
    3.6550   -0.8791   -2.8540 C   0  0  0  0  0  4           0  0  0
    7.5973   -2.0956   -5.1452 C   0  0  0  0  0  4           0  0  0
    2.0539    0.0000   -1.3903 C   0  0  0  0  0  4           0  0  0
   -4.8066   -5.1840   -0.0501 C   0  0  0  0  0  4           0  0  0
   -4.2631   -2.8193    0.2580 C   0  0  0  0  0  4           0  0  0
    6.7377   -2.5970   -4.1953 C   0  0  0  0  0  4           0  0  0
    3.1997   -0.0436   -3.8758 C   0  0  0  0  0  4           0  0  0
    1.5646    0.8626   -2.3635 C   0  0  0  0  0  4           0  0  0
   -5.3411   -4.8871   -1.3060 C   0  0  0  0  0  4           0  0  0
   -4.8053   -2.5434   -1.0029 C   0  0  0  0  0  4           0  0  0
    2.1492    0.8327   -3.6218 C   0  0  0  0  0  4           0  0  0
   -5.3399   -3.5747   -1.7787 C   0  0  0  0  0  4           0  0  0
   -4.8009   -6.5817    0.4792 C   0  0  2  0  0  4           0  0  0
   -3.6827   -1.7440    1.1092 C   0  0  0  0  0  4           0  0  0
    1.4661    0.0000    0.0000 C   0  0  0  0  0  4           0  0  0
   -2.0330    0.0640    1.4064 C   0  0  0  0  0  4           0  0  0
   -2.0770   -1.1237   -0.7511 C   0  0  0  0  0  4           0  0  0
   -0.5065    0.0000    1.3840 C   0  0  0  0  0  4           0  0  0
   -0.5469   -1.1576   -0.7321 C   0  0  0  0  0  4           0  0  0
    8.8259   -2.6442   -5.7573 C   0  0  0  0  0  4           0  0  0
  1 12  1  0     0  0
  2 26  1  0     0  0
  3 26  1  0     0  0
  4 26  1  0     0  0
  5 27  2  0     0  0
  6  7  1  0     0  0
  6 15  1  0     0  0
  7 13  2  0     0  0
  8 14  1  0     0  0
  8 16  2  0     0  0
  9 13  1  0     0  0
  9 14  1  0     0  0
 10 27  1  0     0  0
 10 29  1  0     0  0
 10 30  1  0     0  0
 11 28  1  0     0  0
 11 31  1  0     0  0
 11 32  1  0     0  0
 12 17  1  0     0  0
 12 18  2  0     0  0
 13 19  1  0     0  0
 14 20  2  0     0  0
 15 19  2  0     0  0
 15 33  1  0     0  0
 16 21  1  0     0  0
 16 28  1  0     0  0
 17 22  2  0     0  0
 17 26  1  0     0  0
 18 23  1  0     0  0
 18 27  1  0     0  0
 20 24  1  0     0  0
 21 24  2  0     0  0
 22 25  1  0     0  0
 23 25  2  0     0  0
 29 31  1  0     0  0
 30 32  1  0     0  0
M  END
> <standard_type>
pIC50

> <# Confs.>
25

> <canonical_smiles>
FC(F)(F)C1=CC=CC(C(N2CCN(CC3=NC(NC4=NNC(C)=C4)=CC=C3)CC2)=O)=C1F

> <standard_relation>
=

> <Publication_ID>
nan

> <predicted_activity_value>
6.292429823902063

> <actual_activity_value>
6.229147988357855

> <Compound>
19

> <standard_units>
nM

> hash
11576136930478842395

$$$$
19_
XXILIB    08252103493D 0   0.00000     0.00000

 33 36  0     1  0            999 V2000
   -0.2944   -5.8293    1.4682 F   0  0  0  0  0  1           0  0  0
    0.0388   -7.9230    0.6116 F   0  0  0  0  0  1           0  0  0
   -1.7647   -9.1124    0.3687 F   0  0  0  0  0  1           0  0  0
   -0.7939   -8.2498   -1.3692 F   0  0  0  0  0  1           0  0  0
   -1.9731   -3.4350    3.0923 O   0  0  0  0  0  2           0  0  0
    7.0936   -0.8705   -5.4730 N   0  0  0  0  0  3           0  0  0
    5.9732   -0.5439   -4.8127 N   0  0  0  0  0  3           0  0  0
    3.0815   -0.8567   -1.6210 N   0  0  0  0  0  3           0  0  0
    4.7167   -1.7702   -3.1415 N   0  0  0  0  0  3           0  0  0
   -0.9288   -2.4378    1.2850 N   0  0  2  0  0  3           0  0  0
    0.0000   -0.0000    0.0000 N   0  0  2  0  0  3           0  0  0
   -1.4891   -5.6948    0.8703 C   0  0  0  0  0  4           0  0  0
    5.7407   -1.6009   -4.0191 C   0  0  0  0  0  4           0  0  0
    3.6550   -0.8791   -2.8540 C   0  0  0  0  0  4           0  0  0
    7.5973   -2.0956   -5.1452 C   0  0  0  0  0  4           0  0  0
    2.0539    0.0000   -1.3903 C   0  0  0  0  0  4           0  0  0
   -1.9589   -6.7528    0.0806 C   0  0  0  0  0  4           0  0  0
   -2.2367   -4.5220    1.0442 C   0  0  0  0  0  4           0  0  0
    6.7377   -2.5970   -4.1953 C   0  0  0  0  0  4           0  0  0
    3.1997   -0.0436   -3.8758 C   0  0  0  0  0  4           0  0  0
    1.5646    0.8626   -2.3635 C   0  0  0  0  0  4           0  0  0
   -3.2007   -6.6257   -0.5461 C   0  0  0  0  0  4           0  0  0
   -3.4795   -4.4159    0.4084 C   0  0  0  0  0  4           0  0  0
    2.1492    0.8327   -3.6218 C   0  0  0  0  0  4           0  0  0
   -3.9556   -5.4641   -0.3827 C   0  0  0  0  0  4           0  0  0
   -1.1345   -7.9895   -0.0761 C   0  0  2  0  0  4           0  0  0
   -1.6984   -3.4224    1.8921 C   0  0  0  0  0  4           0  0  0
    1.4661    0.0000    0.0000 C   0  0  0  0  0  4           0  0  0
   -0.3989   -1.3390    2.0890 C   0  0  0  0  0  4           0  0  0
   -0.4610   -2.4773   -0.1046 C   0  0  0  0  0  4           0  0  0
   -0.5482    0.0000    1.3665 C   0  0  0  0  0  4           0  0  0
   -0.5896   -1.1060   -0.7739 C   0  0  0  0  0  4           0  0  0
    8.8259   -2.6442   -5.7573 C   0  0  0  0  0  4           0  0  0
  1 12  1  0     0  0
  2 26  1  0     0  0
  3 26  1  0     0  0
  4 26  1  0     0  0
  5 27  2  0     0  0
  6  7  1  0     0  0
  6 15  1  0     0  0
  7 13  2  0     0  0
  8 14  1  0     0  0
  8 16  2  0     0  0
  9 13  1  0     0  0
  9 14  1  0     0  0
 10 27  1  0     0  0
 10 29  1  0     0  0
 10 30  1  0     0  0
 11 28  1  0     0  0
 11 31  1  0     0  0
 11 32  1  0     0  0
 12 17  1  0     0  0
 12 18  2  0     0  0
 13 19  1  0     0  0
 14 20  2  0     0  0
 15 19  2  0     0  0
 15 33  1  0     0  0
 16 21  1  0     0  0
 16 28  1  0     0  0
 17 22  2  0     0  0
 17 26  1  0     0  0
 18 23  1  0     0  0
 18 27  1  0     0  0
 20 24  1  0     0  0
 21 24  2  0     0  0
 22 25  1  0     0  0
 23 25  2  0     0  0
 29 31  1  0     0  0
 30 32  1  0     0  0
M  END
> <standard_type>
pIC50

> <# Confs.>
25

> <canonical_smiles>
FC(F)(F)C1=CC=CC(C(N2CCN(CC3=NC(NC4=NNC(C)=C4)=CC=C3)CC2)=O)=C1F

> <standard_relation>
=

> <Publication_ID>
nan

> <predicted_activity_value>
6.292429823902063

> <actual_activity_value>
6.229147988357855

> <Compound>
19

> <standard_units>
nM

> hash
11576136930478842395

$$$$
19_
XXILIB    08252103493D 0   0.00000     0.00000

 33 36  0     1  0            999 V2000
   -4.2056   -4.5050    0.8901 F   0  0  0  0  0  1           0  0  0
   -5.2310   -6.3707    0.0561 F   0  0  0  0  0  1           0  0  0
   -7.3006   -6.0879   -0.5466 F   0  0  0  0  0  1           0  0  0
   -5.7494   -6.2708   -2.0523 F   0  0  0  0  0  1           0  0  0
   -3.8598   -1.9616    2.3082 O   0  0  0  0  0  2           0  0  0
    5.7032   -2.7738   -6.0608 N   0  0  0  0  0  3           0  0  0
    5.0045   -1.9950   -5.2222 N   0  0  0  0  0  3           0  0  0
    2.2924   -1.2115   -1.9545 N   0  0  0  0  0  3           0  0  0
    3.0860   -2.5039   -3.8309 N   0  0  0  0  0  3           0  0  0
   -2.6181   -1.0068    0.6058 N   0  0  2  0  0  3           0  0  0
    0.0000   -0.0000    0.0000 N   0  0  2  0  0  3           0  0  0
   -4.8923   -3.6780    0.0854 C   0  0  0  0  0  4           0  0  0
    4.0580   -2.8094   -4.7305 C   0  0  0  0  0  4           0  0  0
    2.8383   -1.2614   -3.1992 C   0  0  0  0  0  4           0  0  0
    5.2494   -4.0584   -6.1378 C   0  0  0  0  0  4           0  0  0
    2.0539    0.0000   -1.3903 C   0  0  0  0  0  4           0  0  0
   -5.8195   -4.2365   -0.8046 C   0  0  0  0  0  4           0  0  0
   -4.6786   -2.2942    0.1484 C   0  0  0  0  0  4           0  0  0
    4.1771   -4.1146   -5.2778 C   0  0  0  0  0  4           0  0  0
    3.1477   -0.0928   -3.8978 C   0  0  0  0  0  4           0  0  0
    2.3502    1.1965   -2.0314 C   0  0  0  0  0  4           0  0  0
   -6.5409   -3.3869   -1.6465 C   0  0  0  0  0  4           0  0  0
   -5.4134   -1.4606   -0.7032 C   0  0  0  0  0  4           0  0  0
    2.9022    1.1412   -3.3034 C   0  0  0  0  0  4           0  0  0
   -6.3384   -2.0076   -1.5955 C   0  0  0  0  0  4           0  0  0
   -6.0226   -5.7168   -0.8381 C   0  0  2  0  0  4           0  0  0
   -3.6827   -1.7440    1.1092 C   0  0  0  0  0  4           0  0  0
    1.4661    0.0000    0.0000 C   0  0  0  0  0  4           0  0  0
   -2.0330    0.0640    1.4064 C   0  0  0  0  0  4           0  0  0
   -2.0770   -1.1237   -0.7511 C   0  0  0  0  0  4           0  0  0
   -0.5065   -0.0000    1.3840 C   0  0  0  0  0  4           0  0  0
   -0.5469   -1.1576   -0.7321 C   0  0  0  0  0  4           0  0  0
    5.8797   -5.0780   -7.0028 C   0  0  0  0  0  4           0  0  0
  1 12  1  0     0  0
  2 26  1  0     0  0
  3 26  1  0     0  0
  4 26  1  0     0  0
  5 27  2  0     0  0
  6  7  1  0     0  0
  6 15  1  0     0  0
  7 13  2  0     0  0
  8 14  1  0     0  0
  8 16  2  0     0  0
  9 13  1  0     0  0
  9 14  1  0     0  0
 10 27  1  0     0  0
 10 29  1  0     0  0
 10 30  1  0     0  0
 11 28  1  0     0  0
 11 31  1  0     0  0
 11 32  1  0     0  0
 12 17  1  0     0  0
 12 18  2  0     0  0
 13 19  1  0     0  0
 14 20  2  0     0  0
 15 19  2  0     0  0
 15 33  1  0     0  0
 16 21  1  0     0  0
 16 28  1  0     0  0
 17 22  2  0     0  0
 17 26  1  0     0  0
 18 23  1  0     0  0
 18 27  1  0     0  0
 20 24  1  0     0  0
 21 24  2  0     0  0
 22 25  1  0     0  0
 23 25  2  0     0  0
 29 31  1  0     0  0
 30 32  1  0     0  0
M  END
> <standard_type>
pIC50

> <# Confs.>
25

> <canonical_smiles>
FC(F)(F)C1=CC=CC(C(N2CCN(CC3=NC(NC4=NNC(C)=C4)=CC=C3)CC2)=O)=C1F

> <standard_relation>
=

> <Publication_ID>
nan

> <predicted_activity_value>
6.292429823902063

> <actual_activity_value>
6.229147988357855

> <Compound>
19

> <standard_units>
nM

> hash
11576136930478842395

$$$$
19_
XXILIB    08252103493D 0   0.00000     0.00000

 33 36  0     1  0            999 V2000
   -4.1948   -3.2470    0.5953 F   0  0  0  0  0  1           0  0  0
   -5.9110   -3.9787   -0.7266 F   0  0  0  0  0  1           0  0  0
   -5.3135   -5.2531   -2.3835 F   0  0  0  0  0  1           0  0  0
   -6.2856   -6.1181   -0.6475 F   0  0  0  0  0  1           0  0  0
   -1.9731   -3.4350    3.0923 O   0  0  0  0  0  2           0  0  0
    7.0936   -0.8705   -5.4730 N   0  0  0  0  0  3           0  0  0
    5.9732   -0.5439   -4.8127 N   0  0  0  0  0  3           0  0  0
    3.0815   -0.8567   -1.6210 N   0  0  0  0  0  3           0  0  0
    4.7167   -1.7702   -3.1415 N   0  0  0  0  0  3           0  0  0
   -0.9288   -2.4378    1.2850 N   0  0  2  0  0  3           0  0  0
    0.0000   -0.0000    0.0000 N   0  0  2  0  0  3           0  0  0
   -3.4865   -4.3753    0.4270 C   0  0  0  0  0  4           0  0  0
    5.7407   -1.6009   -4.0191 C   0  0  0  0  0  4           0  0  0
    3.6550   -0.8791   -2.8540 C   0  0  0  0  0  4           0  0  0
    7.5973   -2.0956   -5.1452 C   0  0  0  0  0  4           0  0  0
    2.0539    0.0000   -1.3903 C   0  0  0  0  0  4           0  0  0
   -4.0292   -5.3856   -0.3782 C   0  0  0  0  0  4           0  0  0
   -2.2367   -4.5220    1.0442 C   0  0  0  0  0  4           0  0  0
    6.7377   -2.5970   -4.1953 C   0  0  0  0  0  4           0  0  0
    3.1997   -0.0436   -3.8758 C   0  0  0  0  0  4           0  0  0
    1.5646    0.8626   -2.3635 C   0  0  0  0  0  4           0  0  0
   -3.3019   -6.5638   -0.5620 C   0  0  0  0  0  4           0  0  0
   -1.5237   -5.7103    0.8455 C   0  0  0  0  0  4           0  0  0
    2.1492    0.8327   -3.6218 C   0  0  0  0  0  4           0  0  0
   -2.0570   -6.7244    0.0465 C   0  0  0  0  0  4           0  0  0
   -5.3629   -5.1891   -1.0236 C   0  0  2  0  0  4           0  0  0
   -1.6984   -3.4224    1.8921 C   0  0  0  0  0  4           0  0  0
    1.4661    0.0000    0.0000 C   0  0  0  0  0  4           0  0  0
   -0.3989   -1.3390    2.0890 C   0  0  0  0  0  4           0  0  0
   -0.4610   -2.4773   -0.1046 C   0  0  0  0  0  4           0  0  0
   -0.5482    0.0000    1.3665 C   0  0  0  0  0  4           0  0  0
   -0.5896   -1.1060   -0.7739 C   0  0  0  0  0  4           0  0  0
    8.8259   -2.6442   -5.7573 C   0  0  0  0  0  4           0  0  0
  1 12  1  0     0  0
  2 26  1  0     0  0
  3 26  1  0     0  0
  4 26  1  0     0  0
  5 27  2  0     0  0
  6  7  1  0     0  0
  6 15  1  0     0  0
  7 13  2  0     0  0
  8 14  1  0     0  0
  8 16  2  0     0  0
  9 13  1  0     0  0
  9 14  1  0     0  0
 10 27  1  0     0  0
 10 29  1  0     0  0
 10 30  1  0     0  0
 11 28  1  0     0  0
 11 31  1  0     0  0
 11 32  1  0     0  0
 12 17  1  0     0  0
 12 18  2  0     0  0
 13 19  1  0     0  0
 14 20  2  0     0  0
 15 19  2  0     0  0
 15 33  1  0     0  0
 16 21  1  0     0  0
 16 28  1  0     0  0
 17 22  2  0     0  0
 17 26  1  0     0  0
 18 23  1  0     0  0
 18 27  1  0     0  0
 20 24  1  0     0  0
 21 24  2  0     0  0
 22 25  1  0     0  0
 23 25  2  0     0  0
 29 31  1  0     0  0
 30 32  1  0     0  0
M  END
> <standard_type>
pIC50

> <# Confs.>
25

> <canonical_smiles>
FC(F)(F)C1=CC=CC(C(N2CCN(CC3=NC(NC4=NNC(C)=C4)=CC=C3)CC2)=O)=C1F

> <standard_relation>
=

> <Publication_ID>
nan

> <predicted_activity_value>
6.292429823902063

> <actual_activity_value>
6.229147988357855

> <Compound>
19

> <standard_units>
nM

> hash
11576136930478842395

$$$$
19_
XXILIB    08252103493D 0   0.00000     0.00000

 33 36  0     1  0            999 V2000
   -2.7637   -4.4069    1.2029 F   0  0  0  0  0  1           0  0  0
   -2.7183   -6.6163    0.6158 F   0  0  0  0  0  1           0  0  0
   -4.6483   -7.4638    0.0836 F   0  0  0  0  0  1           0  0  0
   -3.1938   -7.0252   -1.4652 F   0  0  0  0  0  1           0  0  0
   -4.1851   -1.5539    2.2172 O   0  0  0  0  0  2           0  0  0
    1.4709    0.8705   -7.8500 N   0  0  0  0  0  3           0  0  0
    1.7779    0.5439   -6.5862 N   0  0  0  0  0  3           0  0  0
    1.5033    0.8567   -2.2881 N   0  0  0  0  0  3           0  0  0
    1.4546    1.7702   -4.5205 N   0  0  0  0  0  3           0  0  0
   -2.6181   -1.0068    0.6058 N   0  0  2  0  0  3           0  0  0
    0.0000   -0.0000    0.0000 N   0  0  2  0  0  3           0  0  0
   -3.7611   -4.1247    0.3492 C   0  0  0  0  0  4           0  0  0
    1.3707    1.6009   -5.8665 C   0  0  0  0  0  4           0  0  0
    1.9882    0.8791   -3.5586 C   0  0  0  0  0  4           0  0  0
    0.8848    2.0956   -7.9829 C   0  0  0  0  0  4           0  0  0
    2.0539    0.0000   -1.3903 C   0  0  0  0  0  4           0  0  0
   -4.2786   -5.1652   -0.4339 C   0  0  0  0  0  4           0  0  0
   -4.2631   -2.8193    0.2580 C   0  0  0  0  0  4           0  0  0
    0.8024    2.5970   -6.7044 C   0  0  0  0  0  4           0  0  0
    3.0383    0.0436   -3.9440 C   0  0  0  0  0  4           0  0  0
    3.0928   -0.8626   -1.7175 C   0  0  0  0  0  4           0  0  0
   -5.3169   -4.8849   -1.3252 C   0  0  0  0  0  4           0  0  0
   -5.3050   -2.5605   -0.6406 C   0  0  0  0  0  4           0  0  0
    3.5881   -0.8327   -3.0135 C   0  0  0  0  0  4           0  0  0
   -5.8263   -3.5903   -1.4273 C   0  0  0  0  0  4           0  0  0
   -3.7199   -6.5453   -0.3039 C   0  0  2  0  0  4           0  0  0
   -3.6827   -1.7440    1.1092 C   0  0  0  0  0  4           0  0  0
    1.4661    0.0000   -0.0000 C   0  0  0  0  0  4           0  0  0
   -2.0330    0.0640    1.4064 C   0  0  0  0  0  4           0  0  0
   -2.0770   -1.1237   -0.7511 C   0  0  0  0  0  4           0  0  0
   -0.5065    0.0000    1.3840 C   0  0  0  0  0  4           0  0  0
   -0.5469   -1.1576   -0.7321 C   0  0  0  0  0  4           0  0  0
    0.4678    2.6442   -9.2906 C   0  0  0  0  0  4           0  0  0
  1 12  1  0     0  0
  2 26  1  0     0  0
  3 26  1  0     0  0
  4 26  1  0     0  0
  5 27  2  0     0  0
  6  7  1  0     0  0
  6 15  1  0     0  0
  7 13  2  0     0  0
  8 14  1  0     0  0
  8 16  2  0     0  0
  9 13  1  0     0  0
  9 14  1  0     0  0
 10 27  1  0     0  0
 10 29  1  0     0  0
 10 30  1  0     0  0
 11 28  1  0     0  0
 11 31  1  0     0  0
 11 32  1  0     0  0
 12 17  1  0     0  0
 12 18  2  0     0  0
 13 19  1  0     0  0
 14 20  2  0     0  0
 15 19  2  0     0  0
 15 33  1  0     0  0
 16 21  1  0     0  0
 16 28  1  0     0  0
 17 22  2  0     0  0
 17 26  1  0     0  0
 18 23  1  0     0  0
 18 27  1  0     0  0
 20 24  1  0     0  0
 21 24  2  0     0  0
 22 25  1  0     0  0
 23 25  2  0     0  0
 29 31  1  0     0  0
 30 32  1  0     0  0
M  END
> <standard_type>
pIC50

> <# Confs.>
25

> <canonical_smiles>
FC(F)(F)C1=CC=CC(C(N2CCN(CC3=NC(NC4=NNC(C)=C4)=CC=C3)CC2)=O)=C1F

> <standard_relation>
=

> <Publication_ID>
nan

> <predicted_activity_value>
6.292429823902063

> <actual_activity_value>
6.229147988357855

> <Compound>
19

> <standard_units>
nM

> hash
11576136930478842395

$$$$
19_
XXILIB    08252103493D 0   0.00000     0.00000

 33 36  0     1  0            999 V2000
   -2.6462   -2.9590    3.4317 F   0  0  0  0  0  1           0  0  0
   -2.4758   -3.3515    5.6778 F   0  0  0  0  0  1           0  0  0
   -2.8724   -1.6285    6.9428 F   0  0  0  0  0  1           0  0  0
   -4.3440   -3.2144    6.7801 F   0  0  0  0  0  1           0  0  0
   -4.2310   -2.6616    0.4980 O   0  0  0  0  0  2           0  0  0
    2.8613    4.9023    6.0333 N   0  0  0  0  0  3           0  0  0
    2.7465    4.3517    4.8161 N   0  0  0  0  0  3           0  0  0
    2.2924    1.0869    2.0265 N   0  0  0  0  0  3           0  0  0
    3.0853    2.0659    4.0840 N   0  0  0  0  0  3           0  0  0
   -2.6181   -1.0068    0.6058 N   0  0  2  0  0  3           0  0  0
   -0.0000    0.0000    0.0000 N   0  0  2  0  0  3           0  0  0
   -3.6303   -2.0591    3.5891 C   0  0  0  0  0  4           0  0  0
    3.0533    3.0598    5.0106 C   0  0  0  0  0  4           0  0  0
    2.8048    2.1522    2.6991 C   0  0  0  0  0  4           0  0  0
    3.2327    4.0246    7.0099 C   0  0  0  0  0  4           0  0  0
    2.0539    1.2040    0.6952 C   0  0  0  0  0  4           0  0  0
   -4.0749   -1.7823    4.8889 C   0  0  0  0  0  4           0  0  0
   -4.1856   -1.4188    2.4727 C   0  0  0  0  0  4           0  0  0
    3.3630    2.8114    6.3743 C   0  0  0  0  0  4           0  0  0
    3.0903    3.3501    2.0414 C   0  0  0  0  0  4           0  0  0
    2.3072    2.3733   -0.0114 C   0  0  0  0  0  4           0  0  0
   -5.0974   -0.8474    5.0661 C   0  0  0  0  0  4           0  0  0
   -5.2084   -0.4840    2.6730 C   0  0  0  0  0  4           0  0  0
    2.8350    3.4560    0.6776 C   0  0  0  0  0  4           0  0  0
   -5.6602   -0.2028    3.9645 C   0  0  0  0  0  4           0  0  0
   -3.4537   -2.4821    6.0542 C   0  0  2  0  0  4           0  0  0
   -3.6827   -1.7440    1.1092 C   0  0  0  0  0  4           0  0  0
    1.4661    0.0000   -0.0000 C   0  0  0  0  0  4           0  0  0
   -2.0330    0.0640    1.4064 C   0  0  0  0  0  4           0  0  0
   -2.0770   -1.1237   -0.7511 C   0  0  0  0  0  4           0  0  0
   -0.5065    0.0000    1.3840 C   0  0  0  0  0  4           0  0  0
   -0.5469   -1.1576   -0.7321 C   0  0  0  0  0  4           0  0  0
    3.4140    4.4283    8.4202 C   0  0  0  0  0  4           0  0  0
  1 12  1  0     0  0
  2 26  1  0     0  0
  3 26  1  0     0  0
  4 26  1  0     0  0
  5 27  2  0     0  0
  6  7  1  0     0  0
  6 15  1  0     0  0
  7 13  2  0     0  0
  8 14  1  0     0  0
  8 16  2  0     0  0
  9 13  1  0     0  0
  9 14  1  0     0  0
 10 27  1  0     0  0
 10 29  1  0     0  0
 10 30  1  0     0  0
 11 28  1  0     0  0
 11 31  1  0     0  0
 11 32  1  0     0  0
 12 17  1  0     0  0
 12 18  2  0     0  0
 13 19  1  0     0  0
 14 20  2  0     0  0
 15 19  2  0     0  0
 15 33  1  0     0  0
 16 21  1  0     0  0
 16 28  1  0     0  0
 17 22  2  0     0  0
 17 26  1  0     0  0
 18 23  1  0     0  0
 18 27  1  0     0  0
 20 24  1  0     0  0
 21 24  2  0     0  0
 22 25  1  0     0  0
 23 25  2  0     0  0
 29 31  1  0     0  0
 30 32  1  0     0  0
M  END
> <standard_type>
pIC50

> <# Confs.>
25

> <canonical_smiles>
FC(F)(F)C1=CC=CC(C(N2CCN(CC3=NC(NC4=NNC(C)=C4)=CC=C3)CC2)=O)=C1F

> <standard_relation>
=

> <Publication_ID>
nan

> <predicted_activity_value>
6.292429823902063

> <actual_activity_value>
6.229147988357855

> <Compound>
19

> <standard_units>
nM

> hash
11576136930478842395

$$$$
19_
XXILIB    08252103493D 0   0.00000     0.00000

 33 36  0     1  0            999 V2000
   -6.3724   -1.7182    0.2671 F   0  0  0  0  0  1           0  0  0
   -8.2226   -2.5100   -0.8181 F   0  0  0  0  0  1           0  0  0
   -7.8148   -3.5761   -2.6684 F   0  0  0  0  0  1           0  0  0
   -8.3911   -4.6758   -0.8892 F   0  0  0  0  0  1           0  0  0
   -4.1851   -1.5539    2.2172 O   0  0  0  0  0  2           0  0  0
    2.8613    4.9023    6.0333 N   0  0  0  0  0  3           0  0  0
    2.7465    4.3517    4.8161 N   0  0  0  0  0  3           0  0  0
    2.2924    1.0869    2.0265 N   0  0  0  0  0  3           0  0  0
    3.0853    2.0659    4.0840 N   0  0  0  0  0  3           0  0  0
   -2.6181   -1.0068    0.6058 N   0  0  2  0  0  3           0  0  0
    0.0000   -0.0000    0.0000 N   0  0  2  0  0  3           0  0  0
   -5.6093   -2.7506   -0.1264 C   0  0  0  0  0  4           0  0  0
    3.0533    3.0598    5.0106 C   0  0  0  0  0  4           0  0  0
    2.8048    2.1522    2.6991 C   0  0  0  0  0  4           0  0  0
    3.2327    4.0246    7.0099 C   0  0  0  0  0  4           0  0  0
    2.0539    1.2040    0.6952 C   0  0  0  0  0  4           0  0  0
   -6.1944   -3.7414   -0.9262 C   0  0  0  0  0  4           0  0  0
   -4.2631   -2.8193    0.2580 C   0  0  0  0  0  4           0  0  0
    3.3630    2.8114    6.3743 C   0  0  0  0  0  4           0  0  0
    3.0903    3.3501    2.0414 C   0  0  0  0  0  4           0  0  0
    2.3072    2.3733   -0.0114 C   0  0  0  0  0  4           0  0  0
   -5.4109   -4.8201   -1.3430 C   0  0  0  0  0  4           0  0  0
   -3.4955   -3.9082   -0.1720 C   0  0  0  0  0  4           0  0  0
    2.8350    3.4560    0.6776 C   0  0  0  0  0  4           0  0  0
   -4.0699   -4.9022   -0.9677 C   0  0  0  0  0  4           0  0  0
   -7.6319   -3.6297   -1.3194 C   0  0  2  0  0  4           0  0  0
   -3.6827   -1.7440    1.1092 C   0  0  0  0  0  4           0  0  0
    1.4661    0.0000   -0.0000 C   0  0  0  0  0  4           0  0  0
   -2.0330    0.0640    1.4064 C   0  0  0  0  0  4           0  0  0
   -2.0770   -1.1237   -0.7511 C   0  0  0  0  0  4           0  0  0
   -0.5065    0.0000    1.3840 C   0  0  0  0  0  4           0  0  0
   -0.5469   -1.1576   -0.7321 C   0  0  0  0  0  4           0  0  0
    3.4140    4.4283    8.4202 C   0  0  0  0  0  4           0  0  0
  1 12  1  0     0  0
  2 26  1  0     0  0
  3 26  1  0     0  0
  4 26  1  0     0  0
  5 27  2  0     0  0
  6  7  1  0     0  0
  6 15  1  0     0  0
  7 13  2  0     0  0
  8 14  1  0     0  0
  8 16  2  0     0  0
  9 13  1  0     0  0
  9 14  1  0     0  0
 10 27  1  0     0  0
 10 29  1  0     0  0
 10 30  1  0     0  0
 11 28  1  0     0  0
 11 31  1  0     0  0
 11 32  1  0     0  0
 12 17  1  0     0  0
 12 18  2  0     0  0
 13 19  1  0     0  0
 14 20  2  0     0  0
 15 19  2  0     0  0
 15 33  1  0     0  0
 16 21  1  0     0  0
 16 28  1  0     0  0
 17 22  2  0     0  0
 17 26  1  0     0  0
 18 23  1  0     0  0
 18 27  1  0     0  0
 20 24  1  0     0  0
 21 24  2  0     0  0
 22 25  1  0     0  0
 23 25  2  0     0  0
 29 31  1  0     0  0
 30 32  1  0     0  0
M  END
> <standard_type>
pIC50

> <# Confs.>
25

> <canonical_smiles>
FC(F)(F)C1=CC=CC(C(N2CCN(CC3=NC(NC4=NNC(C)=C4)=CC=C3)CC2)=O)=C1F

> <standard_relation>
=

> <Publication_ID>
nan

> <predicted_activity_value>
6.292429823902063

> <actual_activity_value>
6.229147988357855

> <Compound>
19

> <standard_units>
nM

> hash
11576136930478842395

$$$$
19_
XXILIB    08252103493D 0   0.00000     0.00000

 33 36  0     1  0            999 V2000
   -0.2944   -5.8293    1.4682 F   0  0  0  0  0  1           0  0  0
    0.0388   -7.9230    0.6116 F   0  0  0  0  0  1           0  0  0
   -1.7647   -9.1124    0.3687 F   0  0  0  0  0  1           0  0  0
   -0.7939   -8.2498   -1.3692 F   0  0  0  0  0  1           0  0  0
   -1.9731   -3.4350    3.0923 O   0  0  0  0  0  2           0  0  0
    4.6248    4.6835    5.7190 N   0  0  0  0  0  3           0  0  0
    4.4321    4.0222    4.5686 N   0  0  0  0  0  3           0  0  0
    2.2924    1.0869    2.0265 N   0  0  0  0  0  3           0  0  0
    3.0853    2.0659    4.0840 N   0  0  0  0  0  3           0  0  0
   -0.9288   -2.4378    1.2850 N   0  0  2  0  0  3           0  0  0
    0.0000   -0.0000    0.0000 N   0  0  2  0  0  3           0  0  0
   -1.4891   -5.6948    0.8703 C   0  0  0  0  0  4           0  0  0
    3.5943    3.0273    4.8990 C   0  0  0  0  0  4           0  0  0
    2.8048    2.1522    2.6991 C   0  0  0  0  0  4           0  0  0
    3.9510    4.1594    6.7835 C   0  0  0  0  0  4           0  0  0
    2.0539    1.2040    0.6952 C   0  0  0  0  0  4           0  0  0
   -1.9589   -6.7528    0.0806 C   0  0  0  0  0  4           0  0  0
   -2.2367   -4.5220    1.0442 C   0  0  0  0  0  4           0  0  0
    3.2657    3.0779    6.2799 C   0  0  0  0  0  4           0  0  0
    3.0903    3.3501    2.0414 C   0  0  0  0  0  4           0  0  0
    2.3072    2.3733   -0.0114 C   0  0  0  0  0  4           0  0  0
   -3.2007   -6.6257   -0.5461 C   0  0  0  0  0  4           0  0  0
   -3.4795   -4.4159    0.4084 C   0  0  0  0  0  4           0  0  0
    2.8350    3.4560    0.6776 C   0  0  0  0  0  4           0  0  0
   -3.9556   -5.4641   -0.3827 C   0  0  0  0  0  4           0  0  0
   -1.1345   -7.9895   -0.0761 C   0  0  2  0  0  4           0  0  0
   -1.6984   -3.4224    1.8921 C   0  0  0  0  0  4           0  0  0
    1.4661    0.0000   -0.0000 C   0  0  0  0  0  4           0  0  0
   -0.3989   -1.3390    2.0890 C   0  0  0  0  0  4           0  0  0
   -0.4610   -2.4773   -0.1046 C   0  0  0  0  0  4           0  0  0
   -0.5482    0.0000    1.3665 C   0  0  0  0  0  4           0  0  0
   -0.5896   -1.1060   -0.7739 C   0  0  0  0  0  4           0  0  0
    4.0264    4.7393    8.1410 C   0  0  0  0  0  4           0  0  0
  1 12  1  0     0  0
  2 26  1  0     0  0
  3 26  1  0     0  0
  4 26  1  0     0  0
  5 27  2  0     0  0
  6  7  1  0     0  0
  6 15  1  0     0  0
  7 13  2  0     0  0
  8 14  1  0     0  0
  8 16  2  0     0  0
  9 13  1  0     0  0
  9 14  1  0     0  0
 10 27  1  0     0  0
 10 29  1  0     0  0
 10 30  1  0     0  0
 11 28  1  0     0  0
 11 31  1  0     0  0
 11 32  1  0     0  0
 12 17  1  0     0  0
 12 18  2  0     0  0
 13 19  1  0     0  0
 14 20  2  0     0  0
 15 19  2  0     0  0
 15 33  1  0     0  0
 16 21  1  0     0  0
 16 28  1  0     0  0
 17 22  2  0     0  0
 17 26  1  0     0  0
 18 23  1  0     0  0
 18 27  1  0     0  0
 20 24  1  0     0  0
 21 24  2  0     0  0
 22 25  1  0     0  0
 23 25  2  0     0  0
 29 31  1  0     0  0
 30 32  1  0     0  0
M  END
> <standard_type>
pIC50

> <# Confs.>
25

> <canonical_smiles>
FC(F)(F)C1=CC=CC(C(N2CCN(CC3=NC(NC4=NNC(C)=C4)=CC=C3)CC2)=O)=C1F

> <standard_relation>
=

> <Publication_ID>
nan

> <predicted_activity_value>
6.292429823902063

> <actual_activity_value>
6.229147988357855

> <Compound>
19

> <standard_units>
nM

> hash
11576136930478842395

$$$$
19_
XXILIB    08252103493D 0   0.00000     0.00000

 33 36  0     1  0            999 V2000
   -3.7606   -4.4407    1.9253 F   0  0  0  0  0  1           0  0  0
   -4.2407   -6.6665    1.7173 F   0  0  0  0  0  1           0  0  0
   -6.0493   -7.1141    0.5971 F   0  0  0  0  0  1           0  0  0
   -4.1052   -7.4519   -0.3047 F   0  0  0  0  0  1           0  0  0
   -4.1851   -1.5539    2.2172 O   0  0  0  0  0  2           0  0  0
    2.8613    4.9023    6.0333 N   0  0  0  0  0  3           0  0  0
    2.7465    4.3517    4.8161 N   0  0  0  0  0  3           0  0  0
    2.2924    1.0869    2.0265 N   0  0  0  0  0  3           0  0  0
    3.0853    2.0659    4.0840 N   0  0  0  0  0  3           0  0  0
   -2.6181   -1.0068    0.6058 N   0  0  2  0  0  3           0  0  0
    0.0000   -0.0000    0.0000 N   0  0  2  0  0  3           0  0  0
   -4.2706   -4.1428    0.7194 C   0  0  0  0  0  4           0  0  0
    3.0533    3.0598    5.0106 C   0  0  0  0  0  4           0  0  0
    2.8048    2.1522    2.6991 C   0  0  0  0  0  4           0  0  0
    3.2327    4.0246    7.0099 C   0  0  0  0  0  4           0  0  0
    2.0539    1.2040    0.6952 C   0  0  0  0  0  4           0  0  0
   -4.8066   -5.1840   -0.0501 C   0  0  0  0  0  4           0  0  0
   -4.2631   -2.8193    0.2580 C   0  0  0  0  0  4           0  0  0
    3.3630    2.8114    6.3743 C   0  0  0  0  0  4           0  0  0
    3.0903    3.3501    2.0414 C   0  0  0  0  0  4           0  0  0
    2.3072    2.3733   -0.0114 C   0  0  0  0  0  4           0  0  0
   -5.3411   -4.8871   -1.3060 C   0  0  0  0  0  4           0  0  0
   -4.8053   -2.5434   -1.0029 C   0  0  0  0  0  4           0  0  0
    2.8350    3.4560    0.6776 C   0  0  0  0  0  4           0  0  0
   -5.3399   -3.5747   -1.7787 C   0  0  0  0  0  4           0  0  0
   -4.8009   -6.5817    0.4792 C   0  0  2  0  0  4           0  0  0
   -3.6827   -1.7440    1.1092 C   0  0  0  0  0  4           0  0  0
    1.4661    0.0000   -0.0000 C   0  0  0  0  0  4           0  0  0
   -2.0330    0.0640    1.4064 C   0  0  0  0  0  4           0  0  0
   -2.0770   -1.1237   -0.7511 C   0  0  0  0  0  4           0  0  0
   -0.5065    0.0000    1.3840 C   0  0  0  0  0  4           0  0  0
   -0.5469   -1.1576   -0.7321 C   0  0  0  0  0  4           0  0  0
    3.4140    4.4283    8.4202 C   0  0  0  0  0  4           0  0  0
  1 12  1  0     0  0
  2 26  1  0     0  0
  3 26  1  0     0  0
  4 26  1  0     0  0
  5 27  2  0     0  0
  6  7  1  0     0  0
  6 15  1  0     0  0
  7 13  2  0     0  0
  8 14  1  0     0  0
  8 16  2  0     0  0
  9 13  1  0     0  0
  9 14  1  0     0  0
 10 27  1  0     0  0
 10 29  1  0     0  0
 10 30  1  0     0  0
 11 28  1  0     0  0
 11 31  1  0     0  0
 11 32  1  0     0  0
 12 17  1  0     0  0
 12 18  2  0     0  0
 13 19  1  0     0  0
 14 20  2  0     0  0
 15 19  2  0     0  0
 15 33  1  0     0  0
 16 21  1  0     0  0
 16 28  1  0     0  0
 17 22  2  0     0  0
 17 26  1  0     0  0
 18 23  1  0     0  0
 18 27  1  0     0  0
 20 24  1  0     0  0
 21 24  2  0     0  0
 22 25  1  0     0  0
 23 25  2  0     0  0
 29 31  1  0     0  0
 30 32  1  0     0  0
M  END
> <standard_type>
pIC50

> <# Confs.>
25

> <canonical_smiles>
FC(F)(F)C1=CC=CC(C(N2CCN(CC3=NC(NC4=NNC(C)=C4)=CC=C3)CC2)=O)=C1F

> <standard_relation>
=

> <Publication_ID>
nan

> <predicted_activity_value>
6.292429823902063

> <actual_activity_value>
6.229147988357855

> <Compound>
19

> <standard_units>
nM

> hash
11576136930478842395

$$$$
19_
XXILIB    08252103493D 0   0.00000     0.00000

 33 36  0     1  0            999 V2000
   -5.7796   -1.2633   -0.7118 F   0  0  0  0  0  1           0  0  0
   -7.3163   -1.8168   -2.3119 F   0  0  0  0  0  1           0  0  0
   -6.6869   -3.3786   -3.6870 F   0  0  0  0  0  1           0  0  0
   -8.1427   -3.8196   -2.1401 F   0  0  0  0  0  1           0  0  0
   -4.1851   -1.5539    2.2172 O   0  0  0  0  0  2           0  0  0
    2.8613   -7.6762    1.2289 N   0  0  0  0  0  3           0  0  0
    2.7465   -6.3467    1.3607 N   0  0  0  0  0  3           0  0  0
    2.2924   -2.2984   -0.0719 N   0  0  0  0  0  3           0  0  0
    3.0853   -4.5698   -0.2528 N   0  0  0  0  0  3           0  0  0
   -2.6181   -1.0068    0.6058 N   0  0  2  0  0  3           0  0  0
    0.0000   -0.0000    0.0000 N   0  0  2  0  0  3           0  0  0
   -5.3068   -2.5172   -0.6275 C   0  0  0  0  0  4           0  0  0
    3.0533   -5.8692    0.1446 C   0  0  0  0  0  4           0  0  0
    2.8048   -3.4136    0.5143 C   0  0  0  0  0  4           0  0  0
    3.2327   -8.0830   -0.0195 C   0  0  0  0  0  4           0  0  0
    2.0539   -1.2040    0.6952 C   0  0  0  0  0  4           0  0  0
   -5.8811   -3.4994   -1.4455 C   0  0  0  0  0  4           0  0  0
   -4.2631   -2.8193    0.2580 C   0  0  0  0  0  4           0  0  0
    3.3630   -6.9261   -0.7524 C   0  0  0  0  0  4           0  0  0
    3.0903   -3.4430    1.8806 C   0  0  0  0  0  4           0  0  0
    2.3072   -1.1767    2.0610 C   0  0  0  0  0  4           0  0  0
   -5.3976   -4.8076   -1.3679 C   0  0  0  0  0  4           0  0  0
   -3.7925   -4.1364    0.3188 C   0  0  0  0  0  4           0  0  0
    2.8350   -2.3149    2.6542 C   0  0  0  0  0  4           0  0  0
   -4.3598   -5.1232   -0.4908 C   0  0  0  0  0  4           0  0  0
   -6.9889   -3.1366   -2.3808 C   0  0  2  0  0  4           0  0  0
   -3.6827   -1.7440    1.1092 C   0  0  0  0  0  4           0  0  0
    1.4661    0.0000    0.0000 C   0  0  0  0  0  4           0  0  0
   -2.0330    0.0640    1.4064 C   0  0  0  0  0  4           0  0  0
   -2.0770   -1.1237   -0.7511 C   0  0  0  0  0  4           0  0  0
   -0.5065    0.0000    1.3840 C   0  0  0  0  0  4           0  0  0
   -0.5469   -1.1576   -0.7321 C   0  0  0  0  0  4           0  0  0
    3.4140   -9.5063   -0.3751 C   0  0  0  0  0  4           0  0  0
  1 12  1  0     0  0
  2 26  1  0     0  0
  3 26  1  0     0  0
  4 26  1  0     0  0
  5 27  2  0     0  0
  6  7  1  0     0  0
  6 15  1  0     0  0
  7 13  2  0     0  0
  8 14  1  0     0  0
  8 16  2  0     0  0
  9 13  1  0     0  0
  9 14  1  0     0  0
 10 27  1  0     0  0
 10 29  1  0     0  0
 10 30  1  0     0  0
 11 28  1  0     0  0
 11 31  1  0     0  0
 11 32  1  0     0  0
 12 17  1  0     0  0
 12 18  2  0     0  0
 13 19  1  0     0  0
 14 20  2  0     0  0
 15 19  2  0     0  0
 15 33  1  0     0  0
 16 21  1  0     0  0
 16 28  1  0     0  0
 17 22  2  0     0  0
 17 26  1  0     0  0
 18 23  1  0     0  0
 18 27  1  0     0  0
 20 24  1  0     0  0
 21 24  2  0     0  0
 22 25  1  0     0  0
 23 25  2  0     0  0
 29 31  1  0     0  0
 30 32  1  0     0  0
M  END
> <standard_type>
pIC50

> <# Confs.>
25

> <canonical_smiles>
FC(F)(F)C1=CC=CC(C(N2CCN(CC3=NC(NC4=NNC(C)=C4)=CC=C3)CC2)=O)=C1F

> <standard_relation>
=

> <Publication_ID>
nan

> <predicted_activity_value>
6.292429823902063

> <actual_activity_value>
6.229147988357855

> <Compound>
19

> <standard_units>
nM

> hash
11576136930478842395

$$$$
19_
XXILIB    08252103493D 0   0.00000     0.00000

 33 36  0     1  0            999 V2000
   -4.1948   -3.2470    0.5953 F   0  0  0  0  0  1           0  0  0
   -5.9110   -3.9787   -0.7266 F   0  0  0  0  0  1           0  0  0
   -5.3135   -5.2531   -2.3835 F   0  0  0  0  0  1           0  0  0
   -6.2856   -6.1181   -0.6475 F   0  0  0  0  0  1           0  0  0
   -1.9731   -3.4350    3.0923 O   0  0  0  0  0  2           0  0  0
    4.6248    4.6835    5.7190 N   0  0  0  0  0  3           0  0  0
    4.4321    4.0222    4.5686 N   0  0  0  0  0  3           0  0  0
    2.2924    1.0869    2.0265 N   0  0  0  0  0  3           0  0  0
    3.0853    2.0659    4.0840 N   0  0  0  0  0  3           0  0  0
   -0.9288   -2.4378    1.2850 N   0  0  2  0  0  3           0  0  0
    0.0000   -0.0000    0.0000 N   0  0  2  0  0  3           0  0  0
   -3.4865   -4.3753    0.4270 C   0  0  0  0  0  4           0  0  0
    3.5943    3.0273    4.8990 C   0  0  0  0  0  4           0  0  0
    2.8048    2.1522    2.6991 C   0  0  0  0  0  4           0  0  0
    3.9510    4.1594    6.7835 C   0  0  0  0  0  4           0  0  0
    2.0539    1.2040    0.6952 C   0  0  0  0  0  4           0  0  0
   -4.0292   -5.3856   -0.3782 C   0  0  0  0  0  4           0  0  0
   -2.2367   -4.5220    1.0442 C   0  0  0  0  0  4           0  0  0
    3.2657    3.0779    6.2799 C   0  0  0  0  0  4           0  0  0
    3.0903    3.3501    2.0414 C   0  0  0  0  0  4           0  0  0
    2.3072    2.3733   -0.0114 C   0  0  0  0  0  4           0  0  0
   -3.3019   -6.5638   -0.5620 C   0  0  0  0  0  4           0  0  0
   -1.5237   -5.7103    0.8455 C   0  0  0  0  0  4           0  0  0
    2.8350    3.4560    0.6776 C   0  0  0  0  0  4           0  0  0
   -2.0570   -6.7244    0.0465 C   0  0  0  0  0  4           0  0  0
   -5.3629   -5.1891   -1.0236 C   0  0  2  0  0  4           0  0  0
   -1.6984   -3.4224    1.8921 C   0  0  0  0  0  4           0  0  0
    1.4661    0.0000   -0.0000 C   0  0  0  0  0  4           0  0  0
   -0.3989   -1.3390    2.0890 C   0  0  0  0  0  4           0  0  0
   -0.4610   -2.4773   -0.1046 C   0  0  0  0  0  4           0  0  0
   -0.5482    0.0000    1.3665 C   0  0  0  0  0  4           0  0  0
   -0.5896   -1.1060   -0.7739 C   0  0  0  0  0  4           0  0  0
    4.0264    4.7393    8.1410 C   0  0  0  0  0  4           0  0  0
  1 12  1  0     0  0
  2 26  1  0     0  0
  3 26  1  0     0  0
  4 26  1  0     0  0
  5 27  2  0     0  0
  6  7  1  0     0  0
  6 15  1  0     0  0
  7 13  2  0     0  0
  8 14  1  0     0  0
  8 16  2  0     0  0
  9 13  1  0     0  0
  9 14  1  0     0  0
 10 27  1  0     0  0
 10 29  1  0     0  0
 10 30  1  0     0  0
 11 28  1  0     0  0
 11 31  1  0     0  0
 11 32  1  0     0  0
 12 17  1  0     0  0
 12 18  2  0     0  0
 13 19  1  0     0  0
 14 20  2  0     0  0
 15 19  2  0     0  0
 15 33  1  0     0  0
 16 21  1  0     0  0
 16 28  1  0     0  0
 17 22  2  0     0  0
 17 26  1  0     0  0
 18 23  1  0     0  0
 18 27  1  0     0  0
 20 24  1  0     0  0
 21 24  2  0     0  0
 22 25  1  0     0  0
 23 25  2  0     0  0
 29 31  1  0     0  0
 30 32  1  0     0  0
M  END
> <standard_type>
pIC50

> <# Confs.>
25

> <canonical_smiles>
FC(F)(F)C1=CC=CC(C(N2CCN(CC3=NC(NC4=NNC(C)=C4)=CC=C3)CC2)=O)=C1F

> <standard_relation>
=

> <Publication_ID>
nan

> <predicted_activity_value>
6.292429823902063

> <actual_activity_value>
6.229147988357855

> <Compound>
19

> <standard_units>
nM

> hash
11576136930478842395

$$$$
19_
XXILIB    08252103493D 0   0.00000     0.00000

 33 36  0     1  0            999 V2000
   -4.2056   -4.5050    0.8901 F   0  0  0  0  0  1           0  0  0
   -5.2310   -6.3707    0.0561 F   0  0  0  0  0  1           0  0  0
   -7.3006   -6.0879   -0.5466 F   0  0  0  0  0  1           0  0  0
   -5.7494   -6.2708   -2.0523 F   0  0  0  0  0  1           0  0  0
   -3.8598   -1.9616    2.3082 O   0  0  0  0  0  2           0  0  0
    4.6248    4.6835    5.7190 N   0  0  0  0  0  3           0  0  0
    4.4321    4.0222    4.5686 N   0  0  0  0  0  3           0  0  0
    2.2924    1.0869    2.0265 N   0  0  0  0  0  3           0  0  0
    3.0853    2.0659    4.0840 N   0  0  0  0  0  3           0  0  0
   -2.6181   -1.0068    0.6058 N   0  0  2  0  0  3           0  0  0
    0.0000   -0.0000    0.0000 N   0  0  2  0  0  3           0  0  0
   -4.8923   -3.6780    0.0854 C   0  0  0  0  0  4           0  0  0
    3.5943    3.0273    4.8990 C   0  0  0  0  0  4           0  0  0
    2.8048    2.1522    2.6991 C   0  0  0  0  0  4           0  0  0
    3.9510    4.1594    6.7835 C   0  0  0  0  0  4           0  0  0
    2.0539    1.2040    0.6952 C   0  0  0  0  0  4           0  0  0
   -5.8195   -4.2365   -0.8046 C   0  0  0  0  0  4           0  0  0
   -4.6786   -2.2942    0.1484 C   0  0  0  0  0  4           0  0  0
    3.2657    3.0779    6.2799 C   0  0  0  0  0  4           0  0  0
    3.0903    3.3501    2.0414 C   0  0  0  0  0  4           0  0  0
    2.3072    2.3733   -0.0114 C   0  0  0  0  0  4           0  0  0
   -6.5409   -3.3869   -1.6465 C   0  0  0  0  0  4           0  0  0
   -5.4134   -1.4606   -0.7032 C   0  0  0  0  0  4           0  0  0
    2.8350    3.4560    0.6776 C   0  0  0  0  0  4           0  0  0
   -6.3384   -2.0076   -1.5955 C   0  0  0  0  0  4           0  0  0
   -6.0226   -5.7168   -0.8381 C   0  0  2  0  0  4           0  0  0
   -3.6827   -1.7440    1.1092 C   0  0  0  0  0  4           0  0  0
    1.4661    0.0000   -0.0000 C   0  0  0  0  0  4           0  0  0
   -2.0330    0.0640    1.4064 C   0  0  0  0  0  4           0  0  0
   -2.0770   -1.1237   -0.7511 C   0  0  0  0  0  4           0  0  0
   -0.5065   -0.0000    1.3840 C   0  0  0  0  0  4           0  0  0
   -0.5469   -1.1576   -0.7321 C   0  0  0  0  0  4           0  0  0
    4.0264    4.7393    8.1410 C   0  0  0  0  0  4           0  0  0
  1 12  1  0     0  0
  2 26  1  0     0  0
  3 26  1  0     0  0
  4 26  1  0     0  0
  5 27  2  0     0  0
  6  7  1  0     0  0
  6 15  1  0     0  0
  7 13  2  0     0  0
  8 14  1  0     0  0
  8 16  2  0     0  0
  9 13  1  0     0  0
  9 14  1  0     0  0
 10 27  1  0     0  0
 10 29  1  0     0  0
 10 30  1  0     0  0
 11 28  1  0     0  0
 11 31  1  0     0  0
 11 32  1  0     0  0
 12 17  1  0     0  0
 12 18  2  0     0  0
 13 19  1  0     0  0
 14 20  2  0     0  0
 15 19  2  0     0  0
 15 33  1  0     0  0
 16 21  1  0     0  0
 16 28  1  0     0  0
 17 22  2  0     0  0
 17 26  1  0     0  0
 18 23  1  0     0  0
 18 27  1  0     0  0
 20 24  1  0     0  0
 21 24  2  0     0  0
 22 25  1  0     0  0
 23 25  2  0     0  0
 29 31  1  0     0  0
 30 32  1  0     0  0
M  END
> <standard_type>
pIC50

> <# Confs.>
25

> <canonical_smiles>
FC(F)(F)C1=CC=CC(C(N2CCN(CC3=NC(NC4=NNC(C)=C4)=CC=C3)CC2)=O)=C1F

> <standard_relation>
=

> <Publication_ID>
nan

> <predicted_activity_value>
6.292429823902063

> <actual_activity_value>
6.229147988357855

> <Compound>
19

> <standard_units>
nM

> hash
11576136930478842395

$$$$
13_
XXILIB    08252103493D 0   0.00000     0.00000

 37 41  0     1  0            999 V2000
   -6.2807    2.3267    0.7804 S   0  0  0  0  0  2           0  0  0
    1.3659   -0.0000   -0.0000 O   0  0  0  0  0  2           0  0  0
    0.2196   -0.0024    2.3371 O   0  0  0  0  0  2           0  0  0
   -8.9362    4.4365    2.7463 O   0  0  0  0  0  2           0  0  0
    4.7764    3.5305   -4.6629 O   0  0  0  0  0  2           0  0  0
   -6.4868    0.9131    2.9115 N   0  0  0  0  0  3           0  0  0
   -4.9324   -0.0242   -1.0125 N   0  0  0  0  0  3           0  0  0
   -2.8758   -0.0236   -2.2436 N   0  0  0  0  0  3           0  0  0
   -4.9476    0.0220    1.3725 N   0  0  0  0  0  3           0  0  0
   -7.9907    4.7759    0.6724 N   0  0  0  0  0  3           0  0  0
    3.9945    1.1685   -3.2644 N   0  0  2  0  0  3           0  0  0
   -5.8499    0.9559    1.7564 C   0  0  0  0  0  4           0  0  0
   -7.3671    2.8730    1.9828 C   0  0  0  0  0  4           0  0  0
    0.0000    0.0000   -0.0000 C   0  0  0  0  0  4           0  0  0
   -0.6156   -0.0000    1.2556 C   0  0  0  0  0  4           0  0  0
   -4.2125   -0.0383   -2.1425 C   0  0  0  0  0  4           0  0  0
   -4.2388    0.0212    0.1525 C   0  0  0  0  0  4           0  0  0
   -2.1858   -0.0060   -1.0954 C   0  0  0  0  0  4           0  0  0
   -7.3392    1.9899    3.0415 C   0  0  0  0  0  4           0  0  0
   -8.6039    5.9665    0.2386 C   0  0  0  0  0  4           0  0  0
   -2.8194    0.0078    0.1619 C   0  0  0  0  0  4           0  0  0
   -0.7937   -0.0075   -1.1541 C   0  0  0  0  0  4           0  0  0
   -2.0130    0.0014    1.3293 C   0  0  0  0  0  4           0  0  0
   -9.5461    6.6501    1.0168 C   0  0  0  0  0  4           0  0  0
   -8.2478    6.4727   -1.0168 C   0  0  0  0  0  4           0  0  0
  -10.1241    7.8284    0.5390 C   0  0  0  0  0  4           0  0  0
   -8.8287    7.6506   -1.4895 C   0  0  0  0  0  4           0  0  0
   -9.7666    8.3279   -0.7124 C   0  0  0  0  0  4           0  0  0
   -8.1640    4.0749    1.8581 C   0  0  0  0  0  4           0  0  0
    1.9812    0.0000   -1.2882 C   0  0  0  0  0  4           0  0  0
    4.4793    2.3304   -5.3755 C   0  0  0  0  0  4           0  0  0
    3.9957    3.6184   -3.4714 C   0  0  0  0  0  4           0  0  0
   -0.4267   -0.0023    3.6083 C   0  0  0  0  0  4           0  0  0
    4.7772    1.1107   -4.5090 C   0  0  0  0  0  4           0  0  0
    4.2793    2.4288   -2.5579 C   0  0  0  0  0  4           0  0  0
    4.2803    0.0000   -2.4275 C   0  0  0  0  0  4           0  0  0
    3.4948   -0.0000   -1.1130 C   0  0  0  0  0  4           0  0  0
  1 12  1  0     0  0
  1 13  1  0     0  0
  2 14  1  0     0  0
  2 30  1  0     0  0
  3 15  1  0     0  0
  3 33  1  0     0  0
  4 29  2  0     0  0
  5 31  1  0     0  0
  5 32  1  0     0  0
  6 12  2  0     0  0
  6 19  1  0     0  0
  7 16  1  0     0  0
  7 17  2  0     0  0
  8 16  2  0     0  0
  8 18  1  0     0  0
  9 12  1  0     0  0
  9 17  1  0     0  0
 10 20  1  0     0  0
 10 29  1  0     0  0
 11 34  1  0     0  0
 11 35  1  0     0  0
 11 36  1  0     0  0
 13 19  2  0     0  0
 13 29  1  0     0  0
 14 15  1  0     0  0
 14 22  2  0     0  0
 15 23  2  0     0  0
 17 21  1  0     0  0
 18 21  2  0     0  0
 18 22  1  0     0  0
 20 24  2  0     0  0
 20 25  1  0     0  0
 21 23  1  0     0  0
 24 26  1  0     0  0
 25 27  2  0     0  0
 26 28  2  0     0  0
 27 28  1  0     0  0
 30 37  1  0     0  0
 31 34  1  0     0  0
 32 35  1  0     0  0
 36 37  1  0     0  0
M  END
> <standard_type>
pIC50

> <# Confs.>
25

> <canonical_smiles>
O=C(C1=CN=C(NC2=NC=NC3=C2C=C(OC)C(OCCCN4CCOCC4)=C3)S1)NC5=CC=CC=C5

> <standard_relation>
=

> <Publication_ID>
nan

> <predicted_activity_value>
7.568636235841013

> <actual_activity_value>
7.376750709602099

> <Compound>
13

> <standard_units>
nM

> hash
14816628238382353164

$$$$
13_
XXILIB    08252103493D 0   0.00000     0.00000

 37 41  0     1  0            999 V2000
   -6.1269   -2.3861    0.8727 S   0  0  0  0  0  2           0  0  0
    1.3659   -0.0000   -0.0000 O   0  0  0  0  0  2           0  0  0
    0.2196   -0.0024    2.3371 O   0  0  0  0  0  2           0  0  0
   -8.6649   -4.5717    2.9096 O   0  0  0  0  0  2           0  0  0
    4.7764    3.5305   -4.6629 O   0  0  0  0  0  2           0  0  0
   -6.4302   -0.9049    2.9456 N   0  0  0  0  0  3           0  0  0
   -4.9324   -0.0242   -1.0125 N   0  0  0  0  0  3           0  0  0
   -2.8758   -0.0236   -2.2436 N   0  0  0  0  0  3           0  0  0
   -4.9476    0.0220    1.3725 N   0  0  0  0  0  3           0  0  0
   -7.6839   -4.9375    0.8568 N   0  0  0  0  0  3           0  0  0
    3.9945    1.1685   -3.2644 N   0  0  2  0  0  3           0  0  0
   -5.7876   -0.9530    1.7938 C   0  0  0  0  0  4           0  0  0
   -7.1871   -2.9483    2.0910 C   0  0  0  0  0  4           0  0  0
    0.0000    0.0000    0.0000 C   0  0  0  0  0  4           0  0  0
   -0.6156   -0.0000    1.2556 C   0  0  0  0  0  4           0  0  0
   -4.2125   -0.0383   -2.1425 C   0  0  0  0  0  4           0  0  0
   -4.2388    0.0212    0.1525 C   0  0  0  0  0  4           0  0  0
   -2.1858   -0.0060   -1.0954 C   0  0  0  0  0  4           0  0  0
   -7.2180   -2.0246    3.1144 C   0  0  0  0  0  4           0  0  0
   -8.2190   -6.1807    0.4699 C   0  0  0  0  0  4           0  0  0
   -2.8194    0.0078    0.1619 C   0  0  0  0  0  4           0  0  0
   -0.7937   -0.0075   -1.1541 C   0  0  0  0  0  4           0  0  0
   -2.0130    0.0014    1.3293 C   0  0  0  0  0  4           0  0  0
   -9.1233   -6.8886    1.2709 C   0  0  0  0  0  4           0  0  0
   -7.8242   -6.7143   -0.7624 C   0  0  0  0  0  4           0  0  0
   -9.6248   -8.1185    0.8391 C   0  0  0  0  0  4           0  0  0
   -8.3283   -7.9440   -1.1890 C   0  0  0  0  0  4           0  0  0
   -9.2278   -8.6461   -0.3887 C   0  0  0  0  0  4           0  0  0
   -7.9096   -4.2001    2.0111 C   0  0  0  0  0  4           0  0  0
    1.9812    0.0000   -1.2882 C   0  0  0  0  0  4           0  0  0
    4.4793    2.3304   -5.3755 C   0  0  0  0  0  4           0  0  0
    3.9957    3.6184   -3.4714 C   0  0  0  0  0  4           0  0  0
   -0.4267   -0.0023    3.6083 C   0  0  0  0  0  4           0  0  0
    4.7772    1.1107   -4.5090 C   0  0  0  0  0  4           0  0  0
    4.2793    2.4288   -2.5579 C   0  0  0  0  0  4           0  0  0
    4.2803    0.0000   -2.4275 C   0  0  0  0  0  4           0  0  0
    3.4948   -0.0000   -1.1130 C   0  0  0  0  0  4           0  0  0
  1 12  1  0     0  0
  1 13  1  0     0  0
  2 14  1  0     0  0
  2 30  1  0     0  0
  3 15  1  0     0  0
  3 33  1  0     0  0
  4 29  2  0     0  0
  5 31  1  0     0  0
  5 32  1  0     0  0
  6 12  2  0     0  0
  6 19  1  0     0  0
  7 16  1  0     0  0
  7 17  2  0     0  0
  8 16  2  0     0  0
  8 18  1  0     0  0
  9 12  1  0     0  0
  9 17  1  0     0  0
 10 20  1  0     0  0
 10 29  1  0     0  0
 11 34  1  0     0  0
 11 35  1  0     0  0
 11 36  1  0     0  0
 13 19  2  0     0  0
 13 29  1  0     0  0
 14 15  1  0     0  0
 14 22  2  0     0  0
 15 23  2  0     0  0
 17 21  1  0     0  0
 18 21  2  0     0  0
 18 22  1  0     0  0
 20 24  2  0     0  0
 20 25  1  0     0  0
 21 23  1  0     0  0
 24 26  1  0     0  0
 25 27  2  0     0  0
 26 28  2  0     0  0
 27 28  1  0     0  0
 30 37  1  0     0  0
 31 34  1  0     0  0
 32 35  1  0     0  0
 36 37  1  0     0  0
M  END
> <standard_type>
pIC50

> <# Confs.>
25

> <canonical_smiles>
O=C(C1=CN=C(NC2=NC=NC3=C2C=C(OC)C(OCCCN4CCOCC4)=C3)S1)NC5=CC=CC=C5

> <standard_relation>
=

> <Publication_ID>
nan

> <predicted_activity_value>
7.568636235841013

> <actual_activity_value>
7.376750709602099

> <Compound>
13

> <standard_units>
nM

> hash
14816628238382353164

$$$$
13_
XXILIB    08252103493D 0   0.00000     0.00000

 37 41  0     1  0            999 V2000
   -6.8098    1.8818    0.6563 S   0  0  0  0  0  2           0  0  0
    1.3659   -0.0000   -0.0000 O   0  0  0  0  0  2           0  0  0
    0.2196   -0.0024    2.3371 O   0  0  0  0  0  2           0  0  0
  -10.4391    2.6319    1.9342 O   0  0  0  0  0  2           0  0  0
    4.7764    3.5305   -4.6629 O   0  0  0  0  0  2           0  0  0
   -7.0353    0.0660    2.4549 N   0  0  0  0  0  3           0  0  0
   -4.9324   -0.0242   -1.0125 N   0  0  0  0  0  3           0  0  0
   -2.8758   -0.0236   -2.2436 N   0  0  0  0  0  3           0  0  0
   -4.9476    0.0220    1.3725 N   0  0  0  0  0  3           0  0  0
   -9.1843    3.6617    0.2986 N   0  0  0  0  0  3           0  0  0
    3.9945    1.1685   -3.2644 N   0  0  2  0  0  3           0  0  0
   -6.1855    0.5372    1.5617 C   0  0  0  0  0  4           0  0  0
   -8.2835    1.8121    1.5212 C   0  0  0  0  0  4           0  0  0
    0.0000    0.0000   -0.0000 C   0  0  0  0  0  4           0  0  0
   -0.6156   -0.0000    1.2556 C   0  0  0  0  0  4           0  0  0
   -4.2125   -0.0383   -2.1425 C   0  0  0  0  0  4           0  0  0
   -4.2388    0.0212    0.1525 C   0  0  0  0  0  4           0  0  0
   -2.1858   -0.0060   -1.0954 C   0  0  0  0  0  4           0  0  0
   -8.2145    0.7815    2.4347 C   0  0  0  0  0  4           0  0  0
  -10.0461    4.6716   -0.1693 C   0  0  0  0  0  4           0  0  0
   -2.8194    0.0078    0.1619 C   0  0  0  0  0  4           0  0  0
   -0.7937   -0.0075   -1.1541 C   0  0  0  0  0  4           0  0  0
   -2.0130    0.0014    1.3293 C   0  0  0  0  0  4           0  0  0
  -11.3313    4.8608    0.3533 C   0  0  0  0  0  4           0  0  0
   -9.5870    5.5089   -1.1927 C   0  0  0  0  0  4           0  0  0
  -12.1459    5.8791   -0.1468 C   0  0  0  0  0  4           0  0  0
  -10.4055    6.5249   -1.6890 C   0  0  0  0  0  4           0  0  0
  -11.6844    6.7098   -1.1667 C   0  0  0  0  0  4           0  0  0
   -9.3926    2.7132    1.2907 C   0  0  0  0  0  4           0  0  0
    1.9812    0.0000   -1.2882 C   0  0  0  0  0  4           0  0  0
    4.4793    2.3304   -5.3755 C   0  0  0  0  0  4           0  0  0
    3.9957    3.6184   -3.4714 C   0  0  0  0  0  4           0  0  0
   -0.4267   -0.0023    3.6083 C   0  0  0  0  0  4           0  0  0
    4.7772    1.1107   -4.5090 C   0  0  0  0  0  4           0  0  0
    4.2793    2.4288   -2.5579 C   0  0  0  0  0  4           0  0  0
    4.2803    0.0000   -2.4275 C   0  0  0  0  0  4           0  0  0
    3.4948   -0.0000   -1.1130 C   0  0  0  0  0  4           0  0  0
  1 12  1  0     0  0
  1 13  1  0     0  0
  2 14  1  0     0  0
  2 30  1  0     0  0
  3 15  1  0     0  0
  3 33  1  0     0  0
  4 29  2  0     0  0
  5 31  1  0     0  0
  5 32  1  0     0  0
  6 12  2  0     0  0
  6 19  1  0     0  0
  7 16  1  0     0  0
  7 17  2  0     0  0
  8 16  2  0     0  0
  8 18  1  0     0  0
  9 12  1  0     0  0
  9 17  1  0     0  0
 10 20  1  0     0  0
 10 29  1  0     0  0
 11 34  1  0     0  0
 11 35  1  0     0  0
 11 36  1  0     0  0
 13 19  2  0     0  0
 13 29  1  0     0  0
 14 15  1  0     0  0
 14 22  2  0     0  0
 15 23  2  0     0  0
 17 21  1  0     0  0
 18 21  2  0     0  0
 18 22  1  0     0  0
 20 24  2  0     0  0
 20 25  1  0     0  0
 21 23  1  0     0  0
 24 26  1  0     0  0
 25 27  2  0     0  0
 26 28  2  0     0  0
 27 28  1  0     0  0
 30 37  1  0     0  0
 31 34  1  0     0  0
 32 35  1  0     0  0
 36 37  1  0     0  0
M  END
> <standard_type>
pIC50

> <# Confs.>
25

> <canonical_smiles>
O=C(C1=CN=C(NC2=NC=NC3=C2C=C(OC)C(OCCCN4CCOCC4)=C3)S1)NC5=CC=CC=C5

> <standard_relation>
=

> <Publication_ID>
nan

> <predicted_activity_value>
7.568636235841013

> <actual_activity_value>
7.376750709602099

> <Compound>
13

> <standard_units>
nM

> hash
14816628238382353164

$$$$
13_
XXILIB    08252103493D 0   0.00000     0.00000

 37 41  0     1  0            999 V2000
   -7.0206   -1.4280    0.3529 S   0  0  0  0  0  2           0  0  0
    1.3659   -0.0000   -0.0000 O   0  0  0  0  0  2           0  0  0
    0.2196   -0.0024    2.3371 O   0  0  0  0  0  2           0  0  0
  -10.3683   -2.7350    1.9188 O   0  0  0  0  0  2           0  0  0
    4.7764    3.5305   -4.6629 O   0  0  0  0  0  2           0  0  0
   -6.7744   -0.5347    2.7454 N   0  0  0  0  0  3           0  0  0
   -4.9324   -0.0242   -1.0125 N   0  0  0  0  0  3           0  0  0
   -2.8758   -0.0236   -2.2436 N   0  0  0  0  0  3           0  0  0
   -4.9476    0.0220    1.3725 N   0  0  0  0  0  3           0  0  0
   -9.5237   -2.9605   -0.2133 N   0  0  0  0  0  3           0  0  0
    3.9945    1.1685   -3.2644 N   0  0  2  0  0  3           0  0  0
   -6.1496   -0.5649    1.5832 C   0  0  0  0  0  4           0  0  0
   -8.2888   -1.7625    1.4502 C   0  0  0  0  0  4           0  0  0
    0.0000    0.0000    0.0000 C   0  0  0  0  0  4           0  0  0
   -0.6156   -0.0000    1.2556 C   0  0  0  0  0  4           0  0  0
   -4.2125   -0.0383   -2.1425 C   0  0  0  0  0  4           0  0  0
   -4.2388    0.0212    0.1525 C   0  0  0  0  0  4           0  0  0
   -2.1858   -0.0060   -1.0954 C   0  0  0  0  0  4           0  0  0
   -7.9772   -1.2061    2.6728 C   0  0  0  0  0  4           0  0  0
  -10.5200   -3.7086   -0.8684 C   0  0  0  0  0  4           0  0  0
   -2.8194    0.0078    0.1619 C   0  0  0  0  0  4           0  0  0
   -0.7937   -0.0075   -1.1541 C   0  0  0  0  0  4           0  0  0
   -2.0130    0.0014    1.3293 C   0  0  0  0  0  4           0  0  0
  -11.6866   -4.1318   -0.2199 C   0  0  0  0  0  4           0  0  0
  -10.3233   -4.0320   -2.2160 C   0  0  0  0  0  4           0  0  0
  -12.6443   -4.8716   -0.9171 C   0  0  0  0  0  4           0  0  0
  -11.2836   -4.7718   -2.9079 C   0  0  0  0  0  4           0  0  0
  -12.4433   -5.1918   -2.2589 C   0  0  0  0  0  4           0  0  0
   -9.4754   -2.5141    1.1004 C   0  0  0  0  0  4           0  0  0
    1.9812    0.0000   -1.2882 C   0  0  0  0  0  4           0  0  0
    4.4793    2.3304   -5.3755 C   0  0  0  0  0  4           0  0  0
    3.9957    3.6184   -3.4714 C   0  0  0  0  0  4           0  0  0
   -0.4267   -0.0023    3.6083 C   0  0  0  0  0  4           0  0  0
    4.7772    1.1107   -4.5090 C   0  0  0  0  0  4           0  0  0
    4.2793    2.4288   -2.5579 C   0  0  0  0  0  4           0  0  0
    4.2803    0.0000   -2.4275 C   0  0  0  0  0  4           0  0  0
    3.4948   -0.0000   -1.1130 C   0  0  0  0  0  4           0  0  0
  1 12  1  0     0  0
  1 13  1  0     0  0
  2 14  1  0     0  0
  2 30  1  0     0  0
  3 15  1  0     0  0
  3 33  1  0     0  0
  4 29  2  0     0  0
  5 31  1  0     0  0
  5 32  1  0     0  0
  6 12  2  0     0  0
  6 19  1  0     0  0
  7 16  1  0     0  0
  7 17  2  0     0  0
  8 16  2  0     0  0
  8 18  1  0     0  0
  9 12  1  0     0  0
  9 17  1  0     0  0
 10 20  1  0     0  0
 10 29  1  0     0  0
 11 34  1  0     0  0
 11 35  1  0     0  0
 11 36  1  0     0  0
 13 19  2  0     0  0
 13 29  1  0     0  0
 14 15  1  0     0  0
 14 22  2  0     0  0
 15 23  2  0     0  0
 17 21  1  0     0  0
 18 21  2  0     0  0
 18 22  1  0     0  0
 20 24  2  0     0  0
 20 25  1  0     0  0
 21 23  1  0     0  0
 24 26  1  0     0  0
 25 27  2  0     0  0
 26 28  2  0     0  0
 27 28  1  0     0  0
 30 37  1  0     0  0
 31 34  1  0     0  0
 32 35  1  0     0  0
 36 37  1  0     0  0
M  END
> <standard_type>
pIC50

> <# Confs.>
25

> <canonical_smiles>
O=C(C1=CN=C(NC2=NC=NC3=C2C=C(OC)C(OCCCN4CCOCC4)=C3)S1)NC5=CC=CC=C5

> <standard_relation>
=

> <Publication_ID>
nan

> <predicted_activity_value>
7.568636235841013

> <actual_activity_value>
7.376750709602099

> <Compound>
13

> <standard_units>
nM

> hash
14816628238382353164

$$$$
13_
XXILIB    08252103493D 0   0.00000     0.00000

 37 41  0     1  0            999 V2000
   -6.8098    1.8818    0.6563 S   0  0  0  0  0  2           0  0  0
    1.3659    0.0000    0.0000 O   0  0  0  0  0  2           0  0  0
    0.2196   -0.0024    2.3371 O   0  0  0  0  0  2           0  0  0
  -10.4391    2.6319    1.9342 O   0  0  0  0  0  2           0  0  0
    3.0544    5.8530   -2.9547 O   0  0  0  0  0  2           0  0  0
   -7.0353    0.0660    2.4549 N   0  0  0  0  0  3           0  0  0
   -4.9324   -0.0242   -1.0125 N   0  0  0  0  0  3           0  0  0
   -2.8758   -0.0236   -2.2436 N   0  0  0  0  0  3           0  0  0
   -4.9476    0.0220    1.3725 N   0  0  0  0  0  3           0  0  0
   -9.1843    3.6617    0.2986 N   0  0  0  0  0  3           0  0  0
    3.3507    3.0802   -2.3461 N   0  0  2  0  0  3           0  0  0
   -6.1855    0.5372    1.5617 C   0  0  0  0  0  4           0  0  0
   -8.2835    1.8121    1.5212 C   0  0  0  0  0  4           0  0  0
    0.0000    0.0000   -0.0000 C   0  0  0  0  0  4           0  0  0
   -0.6156   -0.0000    1.2556 C   0  0  0  0  0  4           0  0  0
   -4.2125   -0.0383   -2.1425 C   0  0  0  0  0  4           0  0  0
   -4.2388    0.0212    0.1525 C   0  0  0  0  0  4           0  0  0
   -2.1858   -0.0060   -1.0954 C   0  0  0  0  0  4           0  0  0
   -8.2145    0.7815    2.4347 C   0  0  0  0  0  4           0  0  0
  -10.0461    4.6716   -0.1693 C   0  0  0  0  0  4           0  0  0
   -2.8194    0.0078    0.1619 C   0  0  0  0  0  4           0  0  0
   -0.7937   -0.0075   -1.1541 C   0  0  0  0  0  4           0  0  0
   -2.0130    0.0014    1.3293 C   0  0  0  0  0  4           0  0  0
  -11.3313    4.8608    0.3533 C   0  0  0  0  0  4           0  0  0
   -9.5870    5.5089   -1.1927 C   0  0  0  0  0  4           0  0  0
  -12.1459    5.8791   -0.1468 C   0  0  0  0  0  4           0  0  0
  -10.4055    6.5249   -1.6890 C   0  0  0  0  0  4           0  0  0
  -11.6844    6.7098   -1.1667 C   0  0  0  0  0  4           0  0  0
   -9.3926    2.7132    1.2907 C   0  0  0  0  0  4           0  0  0
    1.9812    0.6441   -1.1156 C   0  0  0  0  0  4           0  0  0
    3.3683    4.9143   -3.9825 C   0  0  0  0  0  4           0  0  0
    2.2571    5.2444   -1.9393 C   0  0  0  0  0  4           0  0  0
   -0.4267   -0.0023    3.6083 C   0  0  0  0  0  4           0  0  0
    4.1389    3.7315   -3.4043 C   0  0  0  0  0  4           0  0  0
    2.9989    4.0673   -1.3115 C   0  0  0  0  0  4           0  0  0
    4.0888    1.9452   -1.7856 C   0  0  0  0  0  4           0  0  0
    3.3205    1.2222   -0.6757 C   0  0  0  0  0  4           0  0  0
  1 12  1  0     0  0
  1 13  1  0     0  0
  2 14  1  0     0  0
  2 30  1  0     0  0
  3 15  1  0     0  0
  3 33  1  0     0  0
  4 29  2  0     0  0
  5 31  1  0     0  0
  5 32  1  0     0  0
  6 12  2  0     0  0
  6 19  1  0     0  0
  7 16  1  0     0  0
  7 17  2  0     0  0
  8 16  2  0     0  0
  8 18  1  0     0  0
  9 12  1  0     0  0
  9 17  1  0     0  0
 10 20  1  0     0  0
 10 29  1  0     0  0
 11 34  1  0     0  0
 11 35  1  0     0  0
 11 36  1  0     0  0
 13 19  2  0     0  0
 13 29  1  0     0  0
 14 15  1  0     0  0
 14 22  2  0     0  0
 15 23  2  0     0  0
 17 21  1  0     0  0
 18 21  2  0     0  0
 18 22  1  0     0  0
 20 24  2  0     0  0
 20 25  1  0     0  0
 21 23  1  0     0  0
 24 26  1  0     0  0
 25 27  2  0     0  0
 26 28  2  0     0  0
 27 28  1  0     0  0
 30 37  1  0     0  0
 31 34  1  0     0  0
 32 35  1  0     0  0
 36 37  1  0     0  0
M  END
> <standard_type>
pIC50

> <# Confs.>
25

> <canonical_smiles>
O=C(C1=CN=C(NC2=NC=NC3=C2C=C(OC)C(OCCCN4CCOCC4)=C3)S1)NC5=CC=CC=C5

> <standard_relation>
=

> <Publication_ID>
nan

> <predicted_activity_value>
7.568636235841013

> <actual_activity_value>
7.376750709602099

> <Compound>
13

> <standard_units>
nM

> hash
14816628238382353164

$$$$
13_
XXILIB    08252103493D 0   0.00000     0.00000

 37 41  0     1  0            999 V2000
   -6.8098    1.8818    0.6563 S   0  0  0  0  0  2           0  0  0
    1.3659   -0.0000    0.0000 O   0  0  0  0  0  2           0  0  0
    0.2196   -0.0024    2.3371 O   0  0  0  0  0  2           0  0  0
  -10.4391    2.6319    1.9342 O   0  0  0  0  0  2           0  0  0
    7.8752   -1.1383    1.3819 O   0  0  0  0  0  2           0  0  0
   -7.0353    0.0660    2.4549 N   0  0  0  0  0  3           0  0  0
   -4.9324   -0.0242   -1.0125 N   0  0  0  0  0  3           0  0  0
   -2.8758   -0.0236   -2.2436 N   0  0  0  0  0  3           0  0  0
   -4.9476    0.0220    1.3725 N   0  0  0  0  0  3           0  0  0
   -9.1843    3.6617    0.2986 N   0  0  0  0  0  3           0  0  0
    5.4967   -1.1804   -0.1952 N   0  0  2  0  0  3           0  0  0
   -6.1855    0.5372    1.5617 C   0  0  0  0  0  4           0  0  0
   -8.2835    1.8121    1.5212 C   0  0  0  0  0  4           0  0  0
    0.0000    0.0000   -0.0000 C   0  0  0  0  0  4           0  0  0
   -0.6156   -0.0000    1.2556 C   0  0  0  0  0  4           0  0  0
   -4.2125   -0.0383   -2.1425 C   0  0  0  0  0  4           0  0  0
   -4.2388    0.0212    0.1525 C   0  0  0  0  0  4           0  0  0
   -2.1858   -0.0060   -1.0954 C   0  0  0  0  0  4           0  0  0
   -8.2145    0.7815    2.4347 C   0  0  0  0  0  4           0  0  0
  -10.0461    4.6716   -0.1693 C   0  0  0  0  0  4           0  0  0
   -2.8194    0.0078    0.1619 C   0  0  0  0  0  4           0  0  0
   -0.7937   -0.0075   -1.1541 C   0  0  0  0  0  4           0  0  0
   -2.0130    0.0014    1.3293 C   0  0  0  0  0  4           0  0  0
  -11.3313    4.8608    0.3533 C   0  0  0  0  0  4           0  0  0
   -9.5870    5.5089   -1.1927 C   0  0  0  0  0  4           0  0  0
  -12.1459    5.8791   -0.1468 C   0  0  0  0  0  4           0  0  0
  -10.4055    6.5249   -1.6890 C   0  0  0  0  0  4           0  0  0
  -11.6844    6.7098   -1.1667 C   0  0  0  0  0  4           0  0  0
   -9.3926    2.7132    1.2907 C   0  0  0  0  0  4           0  0  0
    1.9812    0.0000   -1.2882 C   0  0  0  0  0  4           0  0  0
    7.4744   -2.3291    0.7054 C   0  0  0  0  0  4           0  0  0
    7.4677    0.0195    0.6536 C   0  0  0  0  0  4           0  0  0
   -0.4267   -0.0023    3.6083 C   0  0  0  0  0  4           0  0  0
    5.9576   -2.3647    0.5464 C   0  0  0  0  0  4           0  0  0
    5.9502    0.0413    0.4906 C   0  0  0  0  0  4           0  0  0
    4.0395   -1.2091   -0.3473 C   0  0  0  0  0  4           0  0  0
    3.4948   -0.0000   -1.1130 C   0  0  0  0  0  4           0  0  0
  1 12  1  0     0  0
  1 13  1  0     0  0
  2 14  1  0     0  0
  2 30  1  0     0  0
  3 15  1  0     0  0
  3 33  1  0     0  0
  4 29  2  0     0  0
  5 31  1  0     0  0
  5 32  1  0     0  0
  6 12  2  0     0  0
  6 19  1  0     0  0
  7 16  1  0     0  0
  7 17  2  0     0  0
  8 16  2  0     0  0
  8 18  1  0     0  0
  9 12  1  0     0  0
  9 17  1  0     0  0
 10 20  1  0     0  0
 10 29  1  0     0  0
 11 34  1  0     0  0
 11 35  1  0     0  0
 11 36  1  0     0  0
 13 19  2  0     0  0
 13 29  1  0     0  0
 14 15  1  0     0  0
 14 22  2  0     0  0
 15 23  2  0     0  0
 17 21  1  0     0  0
 18 21  2  0     0  0
 18 22  1  0     0  0
 20 24  2  0     0  0
 20 25  1  0     0  0
 21 23  1  0     0  0
 24 26  1  0     0  0
 25 27  2  0     0  0
 26 28  2  0     0  0
 27 28  1  0     0  0
 30 37  1  0     0  0
 31 34  1  0     0  0
 32 35  1  0     0  0
 36 37  1  0     0  0
M  END
> <standard_type>
pIC50

> <# Confs.>
25

> <canonical_smiles>
O=C(C1=CN=C(NC2=NC=NC3=C2C=C(OC)C(OCCCN4CCOCC4)=C3)S1)NC5=CC=CC=C5

> <standard_relation>
=

> <Publication_ID>
nan

> <predicted_activity_value>
7.568636235841013

> <actual_activity_value>
7.376750709602099

> <Compound>
13

> <standard_units>
nM

> hash
14816628238382353164

$$$$
13_
XXILIB    08252103493D 0   0.00000     0.00000

 37 41  0     1  0            999 V2000
   -6.8098    1.8818    0.6563 S   0  0  0  0  0  2           0  0  0
    1.3659    0.0000   -0.0000 O   0  0  0  0  0  2           0  0  0
    0.2196   -0.0024    2.3371 O   0  0  0  0  0  2           0  0  0
  -10.4391    2.6319    1.9342 O   0  0  0  0  0  2           0  0  0
    6.2402    0.2035   -4.6945 O   0  0  0  0  0  2           0  0  0
   -7.0353    0.0660    2.4549 N   0  0  0  0  0  3           0  0  0
   -4.9324   -0.0242   -1.0125 N   0  0  0  0  0  3           0  0  0
   -2.8758   -0.0236   -2.2436 N   0  0  0  0  0  3           0  0  0
   -4.9476    0.0220    1.3725 N   0  0  0  0  0  3           0  0  0
   -9.1843    3.6617    0.2986 N   0  0  0  0  0  3           0  0  0
    4.4051   -1.0758   -2.9219 N   0  0  2  0  0  3           0  0  0
   -6.1855    0.5372    1.5617 C   0  0  0  0  0  4           0  0  0
   -8.2835    1.8121    1.5212 C   0  0  0  0  0  4           0  0  0
    0.0000    0.0000   -0.0000 C   0  0  0  0  0  4           0  0  0
   -0.6156   -0.0000    1.2556 C   0  0  0  0  0  4           0  0  0
   -4.2125   -0.0383   -2.1425 C   0  0  0  0  0  4           0  0  0
   -4.2388    0.0212    0.1525 C   0  0  0  0  0  4           0  0  0
   -2.1858   -0.0060   -1.0954 C   0  0  0  0  0  4           0  0  0
   -8.2145    0.7815    2.4347 C   0  0  0  0  0  4           0  0  0
  -10.0461    4.6716   -0.1693 C   0  0  0  0  0  4           0  0  0
   -2.8194    0.0078    0.1619 C   0  0  0  0  0  4           0  0  0
   -0.7937   -0.0075   -1.1541 C   0  0  0  0  0  4           0  0  0
   -2.0130    0.0014    1.3293 C   0  0  0  0  0  4           0  0  0
  -11.3313    4.8608    0.3533 C   0  0  0  0  0  4           0  0  0
   -9.5870    5.5089   -1.1927 C   0  0  0  0  0  4           0  0  0
  -12.1459    5.8791   -0.1468 C   0  0  0  0  0  4           0  0  0
  -10.4055    6.5249   -1.6890 C   0  0  0  0  0  4           0  0  0
  -11.6844    6.7098   -1.1667 C   0  0  0  0  0  4           0  0  0
   -9.3926    2.7132    1.2907 C   0  0  0  0  0  4           0  0  0
    1.9812   -0.6441   -1.1156 C   0  0  0  0  0  4           0  0  0
    5.4712   -0.9165   -5.1310 C   0  0  0  0  0  4           0  0  0
    5.5222    0.9629   -3.7225 C   0  0  0  0  0  4           0  0  0
   -0.4267   -0.0023    3.6083 C   0  0  0  0  0  4           0  0  0
    5.1411   -1.8261   -3.9516 C   0  0  0  0  0  4           0  0  0
    5.1906    0.0992   -2.5084 C   0  0  0  0  0  4           0  0  0
    4.0888   -1.9452   -1.7856 C   0  0  0  0  0  4           0  0  0
    3.3205   -1.2222   -0.6757 C   0  0  0  0  0  4           0  0  0
  1 12  1  0     0  0
  1 13  1  0     0  0
  2 14  1  0     0  0
  2 30  1  0     0  0
  3 15  1  0     0  0
  3 33  1  0     0  0
  4 29  2  0     0  0
  5 31  1  0     0  0
  5 32  1  0     0  0
  6 12  2  0     0  0
  6 19  1  0     0  0
  7 16  1  0     0  0
  7 17  2  0     0  0
  8 16  2  0     0  0
  8 18  1  0     0  0
  9 12  1  0     0  0
  9 17  1  0     0  0
 10 20  1  0     0  0
 10 29  1  0     0  0
 11 34  1  0     0  0
 11 35  1  0     0  0
 11 36  1  0     0  0
 13 19  2  0     0  0
 13 29  1  0     0  0
 14 15  1  0     0  0
 14 22  2  0     0  0
 15 23  2  0     0  0
 17 21  1  0     0  0
 18 21  2  0     0  0
 18 22  1  0     0  0
 20 24  2  0     0  0
 20 25  1  0     0  0
 21 23  1  0     0  0
 24 26  1  0     0  0
 25 27  2  0     0  0
 26 28  2  0     0  0
 27 28  1  0     0  0
 30 37  1  0     0  0
 31 34  1  0     0  0
 32 35  1  0     0  0
 36 37  1  0     0  0
M  END
> <standard_type>
pIC50

> <# Confs.>
25

> <canonical_smiles>
O=C(C1=CN=C(NC2=NC=NC3=C2C=C(OC)C(OCCCN4CCOCC4)=C3)S1)NC5=CC=CC=C5

> <standard_relation>
=

> <Publication_ID>
nan

> <predicted_activity_value>
7.568636235841013

> <actual_activity_value>
7.376750709602099

> <Compound>
13

> <standard_units>
nM

> hash
14816628238382353164

$$$$
13_
XXILIB    08252103493D 0   0.00000     0.00000

 37 41  0     1  0            999 V2000
   -6.8098    1.8818    0.6563 S   0  0  0  0  0  2           0  0  0
    1.3659   -0.0000   -0.0000 O   0  0  0  0  0  2           0  0  0
    0.2196   -0.0024    2.3371 O   0  0  0  0  0  2           0  0  0
  -10.4391    2.6319    1.9342 O   0  0  0  0  0  2           0  0  0
    4.7737   -3.5387   -4.6506 O   0  0  0  0  0  2           0  0  0
   -7.0353    0.0660    2.4549 N   0  0  0  0  0  3           0  0  0
   -4.9324   -0.0242   -1.0125 N   0  0  0  0  0  3           0  0  0
   -2.8758   -0.0236   -2.2436 N   0  0  0  0  0  3           0  0  0
   -4.9476    0.0220    1.3725 N   0  0  0  0  0  3           0  0  0
   -9.1843    3.6617    0.2986 N   0  0  0  0  0  3           0  0  0
    3.9945   -1.1685   -3.2644 N   0  0  2  0  0  3           0  0  0
   -6.1855    0.5372    1.5617 C   0  0  0  0  0  4           0  0  0
   -8.2835    1.8121    1.5212 C   0  0  0  0  0  4           0  0  0
    0.0000    0.0000   -0.0000 C   0  0  0  0  0  4           0  0  0
   -0.6156   -0.0000    1.2556 C   0  0  0  0  0  4           0  0  0
   -4.2125   -0.0383   -2.1425 C   0  0  0  0  0  4           0  0  0
   -4.2388    0.0212    0.1525 C   0  0  0  0  0  4           0  0  0
   -2.1858   -0.0060   -1.0954 C   0  0  0  0  0  4           0  0  0
   -8.2145    0.7815    2.4347 C   0  0  0  0  0  4           0  0  0
  -10.0461    4.6716   -0.1693 C   0  0  0  0  0  4           0  0  0
   -2.8194    0.0078    0.1619 C   0  0  0  0  0  4           0  0  0
   -0.7937   -0.0075   -1.1541 C   0  0  0  0  0  4           0  0  0
   -2.0130    0.0014    1.3293 C   0  0  0  0  0  4           0  0  0
  -11.3313    4.8608    0.3533 C   0  0  0  0  0  4           0  0  0
   -9.5870    5.5089   -1.1927 C   0  0  0  0  0  4           0  0  0
  -12.1459    5.8791   -0.1468 C   0  0  0  0  0  4           0  0  0
  -10.4055    6.5249   -1.6890 C   0  0  0  0  0  4           0  0  0
  -11.6844    6.7098   -1.1667 C   0  0  0  0  0  4           0  0  0
   -9.3926    2.7132    1.2907 C   0  0  0  0  0  4           0  0  0
    1.9812    0.0000   -1.2882 C   0  0  0  0  0  4           0  0  0
    4.0457   -3.6206   -3.4260 C   0  0  0  0  0  4           0  0  0
    4.4187   -2.3600   -5.3729 C   0  0  0  0  0  4           0  0  0
   -0.4267   -0.0023    3.6083 C   0  0  0  0  0  4           0  0  0
    4.3415   -2.4072   -2.5501 C   0  0  0  0  0  4           0  0  0
    4.7211   -1.1143   -4.5442 C   0  0  0  0  0  4           0  0  0
    4.2803    0.0000   -2.4275 C   0  0  0  0  0  4           0  0  0
    3.4948   -0.0000   -1.1130 C   0  0  0  0  0  4           0  0  0
  1 12  1  0     0  0
  1 13  1  0     0  0
  2 14  1  0     0  0
  2 30  1  0     0  0
  3 15  1  0     0  0
  3 33  1  0     0  0
  4 29  2  0     0  0
  5 31  1  0     0  0
  5 32  1  0     0  0
  6 12  2  0     0  0
  6 19  1  0     0  0
  7 16  1  0     0  0
  7 17  2  0     0  0
  8 16  2  0     0  0
  8 18  1  0     0  0
  9 12  1  0     0  0
  9 17  1  0     0  0
 10 20  1  0     0  0
 10 29  1  0     0  0
 11 34  1  0     0  0
 11 35  1  0     0  0
 11 36  1  0     0  0
 13 19  2  0     0  0
 13 29  1  0     0  0
 14 15  1  0     0  0
 14 22  2  0     0  0
 15 23  2  0     0  0
 17 21  1  0     0  0
 18 21  2  0     0  0
 18 22  1  0     0  0
 20 24  2  0     0  0
 20 25  1  0     0  0
 21 23  1  0     0  0
 24 26  1  0     0  0
 25 27  2  0     0  0
 26 28  2  0     0  0
 27 28  1  0     0  0
 30 37  1  0     0  0
 31 34  1  0     0  0
 32 35  1  0     0  0
 36 37  1  0     0  0
M  END
> <standard_type>
pIC50

> <# Confs.>
25

> <canonical_smiles>
O=C(C1=CN=C(NC2=NC=NC3=C2C=C(OC)C(OCCCN4CCOCC4)=C3)S1)NC5=CC=CC=C5

> <standard_relation>
=

> <Publication_ID>
nan

> <predicted_activity_value>
7.568636235841013

> <actual_activity_value>
7.376750709602099

> <Compound>
13

> <standard_units>
nM

> hash
14816628238382353164

$$$$
13_
XXILIB    08252103493D 0   0.00000     0.00000

 37 41  0     1  0            999 V2000
   -6.1269   -2.3861    0.8727 S   0  0  0  0  0  2           0  0  0
    1.3659   -0.0000    0.0000 O   0  0  0  0  0  2           0  0  0
    0.2196   -0.0024    2.3371 O   0  0  0  0  0  2           0  0  0
   -8.6649   -4.5717    2.9096 O   0  0  0  0  0  2           0  0  0
    4.4943   -4.9468   -2.2261 O   0  0  0  0  0  2           0  0  0
   -6.4302   -0.9049    2.9456 N   0  0  0  0  0  3           0  0  0
   -4.9324   -0.0242   -1.0125 N   0  0  0  0  0  3           0  0  0
   -2.8758   -0.0236   -2.2436 N   0  0  0  0  0  3           0  0  0
   -4.9476    0.0220    1.3725 N   0  0  0  0  0  3           0  0  0
   -7.6839   -4.9375    0.8568 N   0  0  0  0  0  3           0  0  0
    3.7324   -2.4848   -0.9996 N   0  0  2  0  0  3           0  0  0
   -5.7876   -0.9530    1.7938 C   0  0  0  0  0  4           0  0  0
   -7.1871   -2.9483    2.0910 C   0  0  0  0  0  4           0  0  0
    0.0000    0.0000    0.0000 C   0  0  0  0  0  4           0  0  0
   -0.6156   -0.0000    1.2556 C   0  0  0  0  0  4           0  0  0
   -4.2125   -0.0383   -2.1425 C   0  0  0  0  0  4           0  0  0
   -4.2388    0.0212    0.1525 C   0  0  0  0  0  4           0  0  0
   -2.1858   -0.0060   -1.0954 C   0  0  0  0  0  4           0  0  0
   -7.2180   -2.0246    3.1144 C   0  0  0  0  0  4           0  0  0
   -8.2190   -6.1807    0.4699 C   0  0  0  0  0  4           0  0  0
   -2.8194    0.0078    0.1619 C   0  0  0  0  0  4           0  0  0
   -0.7937   -0.0075   -1.1541 C   0  0  0  0  0  4           0  0  0
   -2.0130    0.0014    1.3293 C   0  0  0  0  0  4           0  0  0
   -9.1233   -6.8886    1.2709 C   0  0  0  0  0  4           0  0  0
   -7.8242   -6.7143   -0.7624 C   0  0  0  0  0  4           0  0  0
   -9.6248   -8.1185    0.8391 C   0  0  0  0  0  4           0  0  0
   -8.3283   -7.9440   -1.1890 C   0  0  0  0  0  4           0  0  0
   -9.2278   -8.6461   -0.3887 C   0  0  0  0  0  4           0  0  0
   -7.9096   -4.2001    2.0111 C   0  0  0  0  0  4           0  0  0
    1.9812    0.0000   -1.2882 C   0  0  0  0  0  4           0  0  0
    3.9615   -4.9302   -0.9025 C   0  0  0  0  0  4           0  0  0
    3.9420   -3.8879   -3.0077 C   0  0  0  0  0  4           0  0  0
   -0.4267   -0.0023    3.6083 C   0  0  0  0  0  4           0  0  0
    4.2805   -3.6046   -0.2181 C   0  0  0  0  0  4           0  0  0
    4.2580   -2.5356   -2.3743 C   0  0  0  0  0  4           0  0  0
    4.0395   -1.2091   -0.3473 C   0  0  0  0  0  4           0  0  0
    3.4948   -0.0000   -1.1130 C   0  0  0  0  0  4           0  0  0
  1 12  1  0     0  0
  1 13  1  0     0  0
  2 14  1  0     0  0
  2 30  1  0     0  0
  3 15  1  0     0  0
  3 33  1  0     0  0
  4 29  2  0     0  0
  5 31  1  0     0  0
  5 32  1  0     0  0
  6 12  2  0     0  0
  6 19  1  0     0  0
  7 16  1  0     0  0
  7 17  2  0     0  0
  8 16  2  0     0  0
  8 18  1  0     0  0
  9 12  1  0     0  0
  9 17  1  0     0  0
 10 20  1  0     0  0
 10 29  1  0     0  0
 11 34  1  0     0  0
 11 35  1  0     0  0
 11 36  1  0     0  0
 13 19  2  0     0  0
 13 29  1  0     0  0
 14 15  1  0     0  0
 14 22  2  0     0  0
 15 23  2  0     0  0
 17 21  1  0     0  0
 18 21  2  0     0  0
 18 22  1  0     0  0
 20 24  2  0     0  0
 20 25  1  0     0  0
 21 23  1  0     0  0
 24 26  1  0     0  0
 25 27  2  0     0  0
 26 28  2  0     0  0
 27 28  1  0     0  0
 30 37  1  0     0  0
 31 34  1  0     0  0
 32 35  1  0     0  0
 36 37  1  0     0  0
M  END
> <standard_type>
pIC50

> <# Confs.>
25

> <canonical_smiles>
O=C(C1=CN=C(NC2=NC=NC3=C2C=C(OC)C(OCCCN4CCOCC4)=C3)S1)NC5=CC=CC=C5

> <standard_relation>
=

> <Publication_ID>
nan

> <predicted_activity_value>
7.568636235841013

> <actual_activity_value>
7.376750709602099

> <Compound>
13

> <standard_units>
nM

> hash
14816628238382353164

$$$$
13_
XXILIB    08252103493D 0   0.00000     0.00000

 37 41  0     1  0            999 V2000
   -6.2807    2.3267    0.7804 S   0  0  0  0  0  2           0  0  0
    1.3659   -0.0000    0.0000 O   0  0  0  0  0  2           0  0  0
    0.2196   -0.0024    2.3371 O   0  0  0  0  0  2           0  0  0
   -8.9362    4.4365    2.7463 O   0  0  0  0  0  2           0  0  0
    4.4943   -4.9468   -2.2261 O   0  0  0  0  0  2           0  0  0
   -6.4868    0.9131    2.9115 N   0  0  0  0  0  3           0  0  0
   -4.9324   -0.0242   -1.0125 N   0  0  0  0  0  3           0  0  0
   -2.8758   -0.0236   -2.2436 N   0  0  0  0  0  3           0  0  0
   -4.9476    0.0220    1.3725 N   0  0  0  0  0  3           0  0  0
   -7.9907    4.7759    0.6724 N   0  0  0  0  0  3           0  0  0
    3.7324   -2.4848   -0.9996 N   0  0  2  0  0  3           0  0  0
   -5.8499    0.9559    1.7564 C   0  0  0  0  0  4           0  0  0
   -7.3671    2.8730    1.9828 C   0  0  0  0  0  4           0  0  0
    0.0000    0.0000   -0.0000 C   0  0  0  0  0  4           0  0  0
   -0.6156   -0.0000    1.2556 C   0  0  0  0  0  4           0  0  0
   -4.2125   -0.0383   -2.1425 C   0  0  0  0  0  4           0  0  0
   -4.2388    0.0212    0.1525 C   0  0  0  0  0  4           0  0  0
   -2.1858   -0.0060   -1.0954 C   0  0  0  0  0  4           0  0  0
   -7.3392    1.9899    3.0415 C   0  0  0  0  0  4           0  0  0
   -8.6039    5.9665    0.2386 C   0  0  0  0  0  4           0  0  0
   -2.8194    0.0078    0.1619 C   0  0  0  0  0  4           0  0  0
   -0.7937   -0.0075   -1.1541 C   0  0  0  0  0  4           0  0  0
   -2.0130    0.0014    1.3293 C   0  0  0  0  0  4           0  0  0
   -9.5461    6.6501    1.0168 C   0  0  0  0  0  4           0  0  0
   -8.2478    6.4727   -1.0168 C   0  0  0  0  0  4           0  0  0
  -10.1241    7.8284    0.5390 C   0  0  0  0  0  4           0  0  0
   -8.8287    7.6506   -1.4895 C   0  0  0  0  0  4           0  0  0
   -9.7666    8.3279   -0.7124 C   0  0  0  0  0  4           0  0  0
   -8.1640    4.0749    1.8581 C   0  0  0  0  0  4           0  0  0
    1.9812    0.0000   -1.2882 C   0  0  0  0  0  4           0  0  0
    3.9615   -4.9302   -0.9025 C   0  0  0  0  0  4           0  0  0
    3.9420   -3.8879   -3.0077 C   0  0  0  0  0  4           0  0  0
   -0.4267   -0.0023    3.6083 C   0  0  0  0  0  4           0  0  0
    4.2805   -3.6046   -0.2181 C   0  0  0  0  0  4           0  0  0
    4.2580   -2.5356   -2.3743 C   0  0  0  0  0  4           0  0  0
    4.0395   -1.2091   -0.3473 C   0  0  0  0  0  4           0  0  0
    3.4948   -0.0000   -1.1130 C   0  0  0  0  0  4           0  0  0
  1 12  1  0     0  0
  1 13  1  0     0  0
  2 14  1  0     0  0
  2 30  1  0     0  0
  3 15  1  0     0  0
  3 33  1  0     0  0
  4 29  2  0     0  0
  5 31  1  0     0  0
  5 32  1  0     0  0
  6 12  2  0     0  0
  6 19  1  0     0  0
  7 16  1  0     0  0
  7 17  2  0     0  0
  8 16  2  0     0  0
  8 18  1  0     0  0
  9 12  1  0     0  0
  9 17  1  0     0  0
 10 20  1  0     0  0
 10 29  1  0     0  0
 11 34  1  0     0  0
 11 35  1  0     0  0
 11 36  1  0     0  0
 13 19  2  0     0  0
 13 29  1  0     0  0
 14 15  1  0     0  0
 14 22  2  0     0  0
 15 23  2  0     0  0
 17 21  1  0     0  0
 18 21  2  0     0  0
 18 22  1  0     0  0
 20 24  2  0     0  0
 20 25  1  0     0  0
 21 23  1  0     0  0
 24 26  1  0     0  0
 25 27  2  0     0  0
 26 28  2  0     0  0
 27 28  1  0     0  0
 30 37  1  0     0  0
 31 34  1  0     0  0
 32 35  1  0     0  0
 36 37  1  0     0  0
M  END
> <standard_type>
pIC50

> <# Confs.>
25

> <canonical_smiles>
O=C(C1=CN=C(NC2=NC=NC3=C2C=C(OC)C(OCCCN4CCOCC4)=C3)S1)NC5=CC=CC=C5

> <standard_relation>
=

> <Publication_ID>
nan

> <predicted_activity_value>
7.568636235841013

> <actual_activity_value>
7.376750709602099

> <Compound>
13

> <standard_units>
nM

> hash
14816628238382353164

$$$$
13_
XXILIB    08252103493D 0   0.00000     0.00000

 37 41  0     1  0            999 V2000
   -6.1269   -2.3861    0.8727 S   0  0  0  0  0  2           0  0  0
    1.3659   -0.0000    0.0000 O   0  0  0  0  0  2           0  0  0
    0.2196   -0.0024    2.3371 O   0  0  0  0  0  2           0  0  0
   -8.6649   -4.5717    2.9096 O   0  0  0  0  0  2           0  0  0
    2.0371   -6.2169   -0.3363 O   0  0  0  0  0  2           0  0  0
   -6.4302   -0.9049    2.9456 N   0  0  0  0  0  3           0  0  0
   -4.9324   -0.0242   -1.0125 N   0  0  0  0  0  3           0  0  0
   -2.8758   -0.0236   -2.2436 N   0  0  0  0  0  3           0  0  0
   -4.9476    0.0220    1.3725 N   0  0  0  0  0  3           0  0  0
   -7.6839   -4.9375    0.8568 N   0  0  0  0  0  3           0  0  0
    2.4052   -3.4184    0.0875 N   0  0  2  0  0  3           0  0  0
   -5.7876   -0.9530    1.7938 C   0  0  0  0  0  4           0  0  0
   -7.1871   -2.9483    2.0910 C   0  0  0  0  0  4           0  0  0
    0.0000    0.0000    0.0000 C   0  0  0  0  0  4           0  0  0
   -0.6156   -0.0000    1.2556 C   0  0  0  0  0  4           0  0  0
   -4.2125   -0.0383   -2.1425 C   0  0  0  0  0  4           0  0  0
   -4.2388    0.0212    0.1525 C   0  0  0  0  0  4           0  0  0
   -2.1858   -0.0060   -1.0954 C   0  0  0  0  0  4           0  0  0
   -7.2180   -2.0246    3.1144 C   0  0  0  0  0  4           0  0  0
   -8.2190   -6.1807    0.4699 C   0  0  0  0  0  4           0  0  0
   -2.8194    0.0078    0.1619 C   0  0  0  0  0  4           0  0  0
   -0.7937   -0.0075   -1.1541 C   0  0  0  0  0  4           0  0  0
   -2.0130    0.0014    1.3293 C   0  0  0  0  0  4           0  0  0
   -9.1233   -6.8886    1.2709 C   0  0  0  0  0  4           0  0  0
   -7.8242   -6.7143   -0.7624 C   0  0  0  0  0  4           0  0  0
   -9.6248   -8.1185    0.8391 C   0  0  0  0  0  4           0  0  0
   -8.3283   -7.9440   -1.1890 C   0  0  0  0  0  4           0  0  0
   -9.2278   -8.6461   -0.3887 C   0  0  0  0  0  4           0  0  0
   -7.9096   -4.2001    2.0111 C   0  0  0  0  0  4           0  0  0
    1.9812   -0.6441   -1.1156 C   0  0  0  0  0  4           0  0  0
    1.5010   -5.5822    0.8239 C   0  0  0  0  0  4           0  0  0
    2.0635   -5.3137   -1.4410 C   0  0  0  0  0  4           0  0  0
   -0.4267   -0.0023    3.6083 C   0  0  0  0  0  4           0  0  0
    2.3476   -4.3722    1.2065 C   0  0  0  0  0  4           0  0  0
    2.9222   -4.0948   -1.1141 C   0  0  0  0  0  4           0  0  0
    3.2204   -2.2559    0.4498 C   0  0  0  0  0  4           0  0  0
    3.3205   -1.2222   -0.6757 C   0  0  0  0  0  4           0  0  0
  1 12  1  0     0  0
  1 13  1  0     0  0
  2 14  1  0     0  0
  2 30  1  0     0  0
  3 15  1  0     0  0
  3 33  1  0     0  0
  4 29  2  0     0  0
  5 31  1  0     0  0
  5 32  1  0     0  0
  6 12  2  0     0  0
  6 19  1  0     0  0
  7 16  1  0     0  0
  7 17  2  0     0  0
  8 16  2  0     0  0
  8 18  1  0     0  0
  9 12  1  0     0  0
  9 17  1  0     0  0
 10 20  1  0     0  0
 10 29  1  0     0  0
 11 34  1  0     0  0
 11 35  1  0     0  0
 11 36  1  0     0  0
 13 19  2  0     0  0
 13 29  1  0     0  0
 14 15  1  0     0  0
 14 22  2  0     0  0
 15 23  2  0     0  0
 17 21  1  0     0  0
 18 21  2  0     0  0
 18 22  1  0     0  0
 20 24  2  0     0  0
 20 25  1  0     0  0
 21 23  1  0     0  0
 24 26  1  0     0  0
 25 27  2  0     0  0
 26 28  2  0     0  0
 27 28  1  0     0  0
 30 37  1  0     0  0
 31 34  1  0     0  0
 32 35  1  0     0  0
 36 37  1  0     0  0
M  END
> <standard_type>
pIC50

> <# Confs.>
25

> <canonical_smiles>
O=C(C1=CN=C(NC2=NC=NC3=C2C=C(OC)C(OCCCN4CCOCC4)=C3)S1)NC5=CC=CC=C5

> <standard_relation>
=

> <Publication_ID>
nan

> <predicted_activity_value>
7.568636235841013

> <actual_activity_value>
7.376750709602099

> <Compound>
13

> <standard_units>
nM

> hash
14816628238382353164

$$$$
13_
XXILIB    08252103493D 0   0.00000     0.00000

 37 41  0     1  0            999 V2000
   -6.8098    1.8818    0.6563 S   0  0  0  0  0  2           0  0  0
    1.3659   -0.0000    0.0000 O   0  0  0  0  0  2           0  0  0
    0.2196   -0.0024    2.3371 O   0  0  0  0  0  2           0  0  0
  -10.4391    2.6319    1.9342 O   0  0  0  0  0  2           0  0  0
    6.5795   -3.2735    2.7711 O   0  0  0  0  0  2           0  0  0
   -7.0353    0.0660    2.4549 N   0  0  0  0  0  3           0  0  0
   -4.9324   -0.0242   -1.0125 N   0  0  0  0  0  3           0  0  0
   -2.8758   -0.0236   -2.2436 N   0  0  0  0  0  3           0  0  0
   -4.9476    0.0220    1.3725 N   0  0  0  0  0  3           0  0  0
   -9.1843    3.6617    0.2986 N   0  0  0  0  0  3           0  0  0
    4.5237   -2.7929    0.8504 N   0  0  2  0  0  3           0  0  0
   -6.1855    0.5372    1.5617 C   0  0  0  0  0  4           0  0  0
   -8.2835    1.8121    1.5212 C   0  0  0  0  0  4           0  0  0
    0.0000    0.0000   -0.0000 C   0  0  0  0  0  4           0  0  0
   -0.6156   -0.0000    1.2556 C   0  0  0  0  0  4           0  0  0
   -4.2125   -0.0383   -2.1425 C   0  0  0  0  0  4           0  0  0
   -4.2388    0.0212    0.1525 C   0  0  0  0  0  4           0  0  0
   -2.1858   -0.0060   -1.0954 C   0  0  0  0  0  4           0  0  0
   -8.2145    0.7815    2.4347 C   0  0  0  0  0  4           0  0  0
  -10.0461    4.6716   -0.1693 C   0  0  0  0  0  4           0  0  0
   -2.8194    0.0078    0.1619 C   0  0  0  0  0  4           0  0  0
   -0.7937   -0.0075   -1.1541 C   0  0  0  0  0  4           0  0  0
   -2.0130    0.0014    1.3293 C   0  0  0  0  0  4           0  0  0
  -11.3313    4.8608    0.3533 C   0  0  0  0  0  4           0  0  0
   -9.5870    5.5089   -1.1927 C   0  0  0  0  0  4           0  0  0
  -12.1459    5.8791   -0.1468 C   0  0  0  0  0  4           0  0  0
  -10.4055    6.5249   -1.6890 C   0  0  0  0  0  4           0  0  0
  -11.6844    6.7098   -1.1667 C   0  0  0  0  0  4           0  0  0
   -9.3926    2.7132    1.2907 C   0  0  0  0  0  4           0  0  0
    1.9812   -0.6441   -1.1156 C   0  0  0  0  0  4           0  0  0
    5.7204   -4.3314    2.3480 C   0  0  0  0  0  4           0  0  0
    6.7768   -2.3298    1.7187 C   0  0  0  0  0  4           0  0  0
   -0.4267   -0.0023    3.6083 C   0  0  0  0  0  4           0  0  0
    4.3613   -3.7776    1.9317 C   0  0  0  0  0  4           0  0  0
    5.4432   -1.7276    1.2843 C   0  0  0  0  0  4           0  0  0
    3.2204   -2.2559    0.4498 C   0  0  0  0  0  4           0  0  0
    3.3205   -1.2222   -0.6757 C   0  0  0  0  0  4           0  0  0
  1 12  1  0     0  0
  1 13  1  0     0  0
  2 14  1  0     0  0
  2 30  1  0     0  0
  3 15  1  0     0  0
  3 33  1  0     0  0
  4 29  2  0     0  0
  5 31  1  0     0  0
  5 32  1  0     0  0
  6 12  2  0     0  0
  6 19  1  0     0  0
  7 16  1  0     0  0
  7 17  2  0     0  0
  8 16  2  0     0  0
  8 18  1  0     0  0
  9 12  1  0     0  0
  9 17  1  0     0  0
 10 20  1  0     0  0
 10 29  1  0     0  0
 11 34  1  0     0  0
 11 35  1  0     0  0
 11 36  1  0     0  0
 13 19  2  0     0  0
 13 29  1  0     0  0
 14 15  1  0     0  0
 14 22  2  0     0  0
 15 23  2  0     0  0
 17 21  1  0     0  0
 18 21  2  0     0  0
 18 22  1  0     0  0
 20 24  2  0     0  0
 20 25  1  0     0  0
 21 23  1  0     0  0
 24 26  1  0     0  0
 25 27  2  0     0  0
 26 28  2  0     0  0
 27 28  1  0     0  0
 30 37  1  0     0  0
 31 34  1  0     0  0
 32 35  1  0     0  0
 36 37  1  0     0  0
M  END
> <standard_type>
pIC50

> <# Confs.>
25

> <canonical_smiles>
O=C(C1=CN=C(NC2=NC=NC3=C2C=C(OC)C(OCCCN4CCOCC4)=C3)S1)NC5=CC=CC=C5

> <standard_relation>
=

> <Publication_ID>
nan

> <predicted_activity_value>
7.568636235841013

> <actual_activity_value>
7.376750709602099

> <Compound>
13

> <standard_units>
nM

> hash
14816628238382353164

$$$$
13_
XXILIB    08252103493D 0   0.00000     0.00000

 37 41  0     1  0            999 V2000
   -6.8098    1.8818    0.6563 S   0  0  0  0  0  2           0  0  0
    1.3659    0.0000   -0.0000 O   0  0  0  0  0  2           0  0  0
    0.2196   -0.0024    2.3371 O   0  0  0  0  0  2           0  0  0
  -10.4391    2.6319    1.9342 O   0  0  0  0  0  2           0  0  0
    7.8749    1.1233    1.3819 O   0  0  0  0  0  2           0  0  0
   -7.0353    0.0660    2.4549 N   0  0  0  0  0  3           0  0  0
   -4.9324   -0.0242   -1.0125 N   0  0  0  0  0  3           0  0  0
   -2.8758   -0.0236   -2.2436 N   0  0  0  0  0  3           0  0  0
   -4.9476    0.0220    1.3725 N   0  0  0  0  0  3           0  0  0
   -9.1843    3.6617    0.2986 N   0  0  0  0  0  3           0  0  0
    5.4967    1.1804   -0.1952 N   0  0  2  0  0  3           0  0  0
   -6.1855    0.5372    1.5617 C   0  0  0  0  0  4           0  0  0
   -8.2835    1.8121    1.5212 C   0  0  0  0  0  4           0  0  0
    0.0000    0.0000   -0.0000 C   0  0  0  0  0  4           0  0  0
   -0.6156   -0.0000    1.2556 C   0  0  0  0  0  4           0  0  0
   -4.2125   -0.0383   -2.1425 C   0  0  0  0  0  4           0  0  0
   -4.2388    0.0212    0.1525 C   0  0  0  0  0  4           0  0  0
   -2.1858   -0.0060   -1.0954 C   0  0  0  0  0  4           0  0  0
   -8.2145    0.7815    2.4347 C   0  0  0  0  0  4           0  0  0
  -10.0461    4.6716   -0.1693 C   0  0  0  0  0  4           0  0  0
   -2.8194    0.0078    0.1619 C   0  0  0  0  0  4           0  0  0
   -0.7937   -0.0075   -1.1541 C   0  0  0  0  0  4           0  0  0
   -2.0130    0.0014    1.3293 C   0  0  0  0  0  4           0  0  0
  -11.3313    4.8608    0.3533 C   0  0  0  0  0  4           0  0  0
   -9.5870    5.5089   -1.1927 C   0  0  0  0  0  4           0  0  0
  -12.1459    5.8791   -0.1468 C   0  0  0  0  0  4           0  0  0
  -10.4055    6.5249   -1.6890 C   0  0  0  0  0  4           0  0  0
  -11.6844    6.7098   -1.1667 C   0  0  0  0  0  4           0  0  0
   -9.3926    2.7132    1.2907 C   0  0  0  0  0  4           0  0  0
    1.9812    0.0000   -1.2882 C   0  0  0  0  0  4           0  0  0
    7.4282   -0.0481    0.7003 C   0  0  0  0  0  4           0  0  0
    7.5128    2.2992    0.6585 C   0  0  0  0  0  4           0  0  0
   -0.4267   -0.0023    3.6083 C   0  0  0  0  0  4           0  0  0
    5.9112   -0.0241    0.5413 C   0  0  0  0  0  4           0  0  0
    5.9973    2.3807    0.4958 C   0  0  0  0  0  4           0  0  0
    4.0395    1.2091   -0.3473 C   0  0  0  0  0  4           0  0  0
    3.4948    0.0000   -1.1130 C   0  0  0  0  0  4           0  0  0
  1 12  1  0     0  0
  1 13  1  0     0  0
  2 14  1  0     0  0
  2 30  1  0     0  0
  3 15  1  0     0  0
  3 33  1  0     0  0
  4 29  2  0     0  0
  5 31  1  0     0  0
  5 32  1  0     0  0
  6 12  2  0     0  0
  6 19  1  0     0  0
  7 16  1  0     0  0
  7 17  2  0     0  0
  8 16  2  0     0  0
  8 18  1  0     0  0
  9 12  1  0     0  0
  9 17  1  0     0  0
 10 20  1  0     0  0
 10 29  1  0     0  0
 11 34  1  0     0  0
 11 35  1  0     0  0
 11 36  1  0     0  0
 13 19  2  0     0  0
 13 29  1  0     0  0
 14 15  1  0     0  0
 14 22  2  0     0  0
 15 23  2  0     0  0
 17 21  1  0     0  0
 18 21  2  0     0  0
 18 22  1  0     0  0
 20 24  2  0     0  0
 20 25  1  0     0  0
 21 23  1  0     0  0
 24 26  1  0     0  0
 25 27  2  0     0  0
 26 28  2  0     0  0
 27 28  1  0     0  0
 30 37  1  0     0  0
 31 34  1  0     0  0
 32 35  1  0     0  0
 36 37  1  0     0  0
M  END
> <standard_type>
pIC50

> <# Confs.>
25

> <canonical_smiles>
O=C(C1=CN=C(NC2=NC=NC3=C2C=C(OC)C(OCCCN4CCOCC4)=C3)S1)NC5=CC=CC=C5

> <standard_relation>
=

> <Publication_ID>
nan

> <predicted_activity_value>
7.568636235841013

> <actual_activity_value>
7.376750709602099

> <Compound>
13

> <standard_units>
nM

> hash
14816628238382353164

$$$$
13_
XXILIB    08252103493D 0   0.00000     0.00000

 37 41  0     1  0            999 V2000
   -6.8098    1.8818    0.6563 S   0  0  0  0  0  2           0  0  0
    1.3659   -0.0000    0.0000 O   0  0  0  0  0  2           0  0  0
    0.2196   -0.0024    2.3371 O   0  0  0  0  0  2           0  0  0
  -10.4391    2.6319    1.9342 O   0  0  0  0  0  2           0  0  0
    4.4943   -4.9468   -2.2261 O   0  0  0  0  0  2           0  0  0
   -7.0353    0.0660    2.4549 N   0  0  0  0  0  3           0  0  0
   -4.9324   -0.0242   -1.0125 N   0  0  0  0  0  3           0  0  0
   -2.8758   -0.0236   -2.2436 N   0  0  0  0  0  3           0  0  0
   -4.9476    0.0220    1.3725 N   0  0  0  0  0  3           0  0  0
   -9.1843    3.6617    0.2986 N   0  0  0  0  0  3           0  0  0
    3.7324   -2.4848   -0.9996 N   0  0  2  0  0  3           0  0  0
   -6.1855    0.5372    1.5617 C   0  0  0  0  0  4           0  0  0
   -8.2835    1.8121    1.5212 C   0  0  0  0  0  4           0  0  0
    0.0000    0.0000   -0.0000 C   0  0  0  0  0  4           0  0  0
   -0.6156   -0.0000    1.2556 C   0  0  0  0  0  4           0  0  0
   -4.2125   -0.0383   -2.1425 C   0  0  0  0  0  4           0  0  0
   -4.2388    0.0212    0.1525 C   0  0  0  0  0  4           0  0  0
   -2.1858   -0.0060   -1.0954 C   0  0  0  0  0  4           0  0  0
   -8.2145    0.7815    2.4347 C   0  0  0  0  0  4           0  0  0
  -10.0461    4.6716   -0.1693 C   0  0  0  0  0  4           0  0  0
   -2.8194    0.0078    0.1619 C   0  0  0  0  0  4           0  0  0
   -0.7937   -0.0075   -1.1541 C   0  0  0  0  0  4           0  0  0
   -2.0130    0.0014    1.3293 C   0  0  0  0  0  4           0  0  0
  -11.3313    4.8608    0.3533 C   0  0  0  0  0  4           0  0  0
   -9.5870    5.5089   -1.1927 C   0  0  0  0  0  4           0  0  0
  -12.1459    5.8791   -0.1468 C   0  0  0  0  0  4           0  0  0
  -10.4055    6.5249   -1.6890 C   0  0  0  0  0  4           0  0  0
  -11.6844    6.7098   -1.1667 C   0  0  0  0  0  4           0  0  0
   -9.3926    2.7132    1.2907 C   0  0  0  0  0  4           0  0  0
    1.9812    0.0000   -1.2882 C   0  0  0  0  0  4           0  0  0
    3.9615   -4.9302   -0.9025 C   0  0  0  0  0  4           0  0  0
    3.9420   -3.8879   -3.0077 C   0  0  0  0  0  4           0  0  0
   -0.4267   -0.0023    3.6083 C   0  0  0  0  0  4           0  0  0
    4.2805   -3.6046   -0.2181 C   0  0  0  0  0  4           0  0  0
    4.2580   -2.5356   -2.3743 C   0  0  0  0  0  4           0  0  0
    4.0395   -1.2091   -0.3473 C   0  0  0  0  0  4           0  0  0
    3.4948   -0.0000   -1.1130 C   0  0  0  0  0  4           0  0  0
  1 12  1  0     0  0
  1 13  1  0     0  0
  2 14  1  0     0  0
  2 30  1  0     0  0
  3 15  1  0     0  0
  3 33  1  0     0  0
  4 29  2  0     0  0
  5 31  1  0     0  0
  5 32  1  0     0  0
  6 12  2  0     0  0
  6 19  1  0     0  0
  7 16  1  0     0  0
  7 17  2  0     0  0
  8 16  2  0     0  0
  8 18  1  0     0  0
  9 12  1  0     0  0
  9 17  1  0     0  0
 10 20  1  0     0  0
 10 29  1  0     0  0
 11 34  1  0     0  0
 11 35  1  0     0  0
 11 36  1  0     0  0
 13 19  2  0     0  0
 13 29  1  0     0  0
 14 15  1  0     0  0
 14 22  2  0     0  0
 15 23  2  0     0  0
 17 21  1  0     0  0
 18 21  2  0     0  0
 18 22  1  0     0  0
 20 24  2  0     0  0
 20 25  1  0     0  0
 21 23  1  0     0  0
 24 26  1  0     0  0
 25 27  2  0     0  0
 26 28  2  0     0  0
 27 28  1  0     0  0
 30 37  1  0     0  0
 31 34  1  0     0  0
 32 35  1  0     0  0
 36 37  1  0     0  0
M  END
> <standard_type>
pIC50

> <# Confs.>
25

> <canonical_smiles>
O=C(C1=CN=C(NC2=NC=NC3=C2C=C(OC)C(OCCCN4CCOCC4)=C3)S1)NC5=CC=CC=C5

> <standard_relation>
=

> <Publication_ID>
nan

> <predicted_activity_value>
7.568636235841013

> <actual_activity_value>
7.376750709602099

> <Compound>
13

> <standard_units>
nM

> hash
14816628238382353164

$$$$
13_
XXILIB    08252103493D 0   0.00000     0.00000

 37 41  0     1  0            999 V2000
   -6.8098    1.8818    0.6563 S   0  0  0  0  0  2           0  0  0
    1.3659   -0.0000   -0.0000 O   0  0  0  0  0  2           0  0  0
    0.2196   -0.0024    2.3371 O   0  0  0  0  0  2           0  0  0
  -10.4391    2.6319    1.9342 O   0  0  0  0  0  2           0  0  0
    8.3292   -1.1410   -2.5398 O   0  0  0  0  0  2           0  0  0
   -7.0353    0.0660    2.4549 N   0  0  0  0  0  3           0  0  0
   -4.9324   -0.0242   -1.0125 N   0  0  0  0  0  3           0  0  0
   -2.8758   -0.0236   -2.2436 N   0  0  0  0  0  3           0  0  0
   -4.9476    0.0220    1.3725 N   0  0  0  0  0  3           0  0  0
   -9.1843    3.6617    0.2986 N   0  0  0  0  0  3           0  0  0
    5.7318    0.0000   -2.2262 N   0  0  2  0  0  3           0  0  0
   -6.1855    0.5372    1.5617 C   0  0  0  0  0  4           0  0  0
   -8.2835    1.8121    1.5212 C   0  0  0  0  0  4           0  0  0
    0.0000    0.0000   -0.0000 C   0  0  0  0  0  4           0  0  0
   -0.6156   -0.0000    1.2556 C   0  0  0  0  0  4           0  0  0
   -4.2125   -0.0383   -2.1425 C   0  0  0  0  0  4           0  0  0
   -4.2388    0.0212    0.1525 C   0  0  0  0  0  4           0  0  0
   -2.1858   -0.0060   -1.0954 C   0  0  0  0  0  4           0  0  0
   -8.2145    0.7815    2.4347 C   0  0  0  0  0  4           0  0  0
  -10.0461    4.6716   -0.1693 C   0  0  0  0  0  4           0  0  0
   -2.8194    0.0078    0.1619 C   0  0  0  0  0  4           0  0  0
   -0.7937   -0.0075   -1.1541 C   0  0  0  0  0  4           0  0  0
   -2.0130    0.0014    1.3293 C   0  0  0  0  0  4           0  0  0
  -11.3313    4.8608    0.3533 C   0  0  0  0  0  4           0  0  0
   -9.5870    5.5089   -1.1927 C   0  0  0  0  0  4           0  0  0
  -12.1459    5.8791   -0.1468 C   0  0  0  0  0  4           0  0  0
  -10.4055    6.5249   -1.6890 C   0  0  0  0  0  4           0  0  0
  -11.6844    6.7098   -1.1667 C   0  0  0  0  0  4           0  0  0
   -9.3926    2.7132    1.2907 C   0  0  0  0  0  4           0  0  0
    1.9812    0.0000   -1.2882 C   0  0  0  0  0  4           0  0  0
    7.9390   -0.0035   -3.3080 C   0  0  0  0  0  4           0  0  0
    7.6897   -1.1339   -1.2638 C   0  0  0  0  0  4           0  0  0
   -0.4267   -0.0023    3.6083 C   0  0  0  0  0  4           0  0  0
    6.4286    0.0000   -3.5222 C   0  0  0  0  0  4           0  0  0
    6.1721   -1.1557   -1.4268 C   0  0  0  0  0  4           0  0  0
    4.2803    0.0000   -2.4275 C   0  0  0  0  0  4           0  0  0
    3.4948   -0.0000   -1.1130 C   0  0  0  0  0  4           0  0  0
  1 12  1  0     0  0
  1 13  1  0     0  0
  2 14  1  0     0  0
  2 30  1  0     0  0
  3 15  1  0     0  0
  3 33  1  0     0  0
  4 29  2  0     0  0
  5 31  1  0     0  0
  5 32  1  0     0  0
  6 12  2  0     0  0
  6 19  1  0     0  0
  7 16  1  0     0  0
  7 17  2  0     0  0
  8 16  2  0     0  0
  8 18  1  0     0  0
  9 12  1  0     0  0
  9 17  1  0     0  0
 10 20  1  0     0  0
 10 29  1  0     0  0
 11 34  1  0     0  0
 11 35  1  0     0  0
 11 36  1  0     0  0
 13 19  2  0     0  0
 13 29  1  0     0  0
 14 15  1  0     0  0
 14 22  2  0     0  0
 15 23  2  0     0  0
 17 21  1  0     0  0
 18 21  2  0     0  0
 18 22  1  0     0  0
 20 24  2  0     0  0
 20 25  1  0     0  0
 21 23  1  0     0  0
 24 26  1  0     0  0
 25 27  2  0     0  0
 26 28  2  0     0  0
 27 28  1  0     0  0
 30 37  1  0     0  0
 31 34  1  0     0  0
 32 35  1  0     0  0
 36 37  1  0     0  0
M  END
> <standard_type>
pIC50

> <# Confs.>
25

> <canonical_smiles>
O=C(C1=CN=C(NC2=NC=NC3=C2C=C(OC)C(OCCCN4CCOCC4)=C3)S1)NC5=CC=CC=C5

> <standard_relation>
=

> <Publication_ID>
nan

> <predicted_activity_value>
7.568636235841013

> <actual_activity_value>
7.376750709602099

> <Compound>
13

> <standard_units>
nM

> hash
14816628238382353164

$$$$
13_
XXILIB    08252103493D 0   0.00000     0.00000

 37 41  0     1  0            999 V2000
   -7.1093    1.2929    0.2996 S   0  0  0  0  0  2           0  0  0
    1.3659   -0.0000    0.0000 O   0  0  0  0  0  2           0  0  0
    0.2196   -0.0024    2.3371 O   0  0  0  0  0  2           0  0  0
  -10.5249    2.4659    1.8246 O   0  0  0  0  0  2           0  0  0
    4.4943   -4.9468   -2.2261 O   0  0  0  0  0  2           0  0  0
   -6.8071    0.5149    2.7258 N   0  0  0  0  0  3           0  0  0
   -4.9324   -0.0242   -1.0125 N   0  0  0  0  0  3           0  0  0
   -2.8758   -0.0236   -2.2436 N   0  0  0  0  0  3           0  0  0
   -4.9476    0.0220    1.3725 N   0  0  0  0  0  3           0  0  0
   -9.7008    2.6476   -0.3197 N   0  0  0  0  0  3           0  0  0
    3.7324   -2.4848   -0.9996 N   0  0  2  0  0  3           0  0  0
   -6.1855    0.5372    1.5617 C   0  0  0  0  0  4           0  0  0
   -8.3928    1.5985    1.3877 C   0  0  0  0  0  4           0  0  0
    0.0000    0.0000   -0.0000 C   0  0  0  0  0  4           0  0  0
   -0.6156    0.0000    1.2556 C   0  0  0  0  0  4           0  0  0
   -4.2125   -0.0383   -2.1425 C   0  0  0  0  0  4           0  0  0
   -4.2388    0.0212    0.1525 C   0  0  0  0  0  4           0  0  0
   -2.1858   -0.0060   -1.0954 C   0  0  0  0  0  4           0  0  0
   -8.0471    1.1117    2.6307 C   0  0  0  0  0  4           0  0  0
  -10.7422    3.3046   -1.0019 C   0  0  0  0  0  4           0  0  0
   -2.8194    0.0078    0.1619 C   0  0  0  0  0  4           0  0  0
   -0.7937   -0.0075   -1.1541 C   0  0  0  0  0  4           0  0  0
   -2.0130    0.0014    1.3293 C   0  0  0  0  0  4           0  0  0
  -11.9307    3.6848   -0.3667 C   0  0  0  0  0  4           0  0  0
  -10.5679    3.5815   -2.3628 C   0  0  0  0  0  4           0  0  0
  -12.9325    4.3353   -1.0904 C   0  0  0  0  0  4           0  0  0
  -11.5725    4.2317   -3.0814 C   0  0  0  0  0  4           0  0  0
  -12.7544    4.6081   -2.4458 C   0  0  0  0  0  4           0  0  0
   -9.6224    2.2635    1.0120 C   0  0  0  0  0  4           0  0  0
    1.9812    0.0000   -1.2882 C   0  0  0  0  0  4           0  0  0
    3.9615   -4.9302   -0.9025 C   0  0  0  0  0  4           0  0  0
    3.9420   -3.8879   -3.0077 C   0  0  0  0  0  4           0  0  0
   -0.4267   -0.0023    3.6083 C   0  0  0  0  0  4           0  0  0
    4.2805   -3.6046   -0.2181 C   0  0  0  0  0  4           0  0  0
    4.2580   -2.5356   -2.3743 C   0  0  0  0  0  4           0  0  0
    4.0395   -1.2091   -0.3473 C   0  0  0  0  0  4           0  0  0
    3.4948   -0.0000   -1.1130 C   0  0  0  0  0  4           0  0  0
  1 12  1  0     0  0
  1 13  1  0     0  0
  2 14  1  0     0  0
  2 30  1  0     0  0
  3 15  1  0     0  0
  3 33  1  0     0  0
  4 29  2  0     0  0
  5 31  1  0     0  0
  5 32  1  0     0  0
  6 12  2  0     0  0
  6 19  1  0     0  0
  7 16  1  0     0  0
  7 17  2  0     0  0
  8 16  2  0     0  0
  8 18  1  0     0  0
  9 12  1  0     0  0
  9 17  1  0     0  0
 10 20  1  0     0  0
 10 29  1  0     0  0
 11 34  1  0     0  0
 11 35  1  0     0  0
 11 36  1  0     0  0
 13 19  2  0     0  0
 13 29  1  0     0  0
 14 15  1  0     0  0
 14 22  2  0     0  0
 15 23  2  0     0  0
 17 21  1  0     0  0
 18 21  2  0     0  0
 18 22  1  0     0  0
 20 24  2  0     0  0
 20 25  1  0     0  0
 21 23  1  0     0  0
 24 26  1  0     0  0
 25 27  2  0     0  0
 26 28  2  0     0  0
 27 28  1  0     0  0
 30 37  1  0     0  0
 31 34  1  0     0  0
 32 35  1  0     0  0
 36 37  1  0     0  0
M  END
> <standard_type>
pIC50

> <# Confs.>
25

> <canonical_smiles>
O=C(C1=CN=C(NC2=NC=NC3=C2C=C(OC)C(OCCCN4CCOCC4)=C3)S1)NC5=CC=CC=C5

> <standard_relation>
=

> <Publication_ID>
nan

> <predicted_activity_value>
7.568636235841013

> <actual_activity_value>
7.376750709602099

> <Compound>
13

> <standard_units>
nM

> hash
14816628238382353164

$$$$
13_
XXILIB    08252103493D 0   0.00000     0.00000

 37 41  0     1  0            999 V2000
   -6.8098    1.8818    0.6563 S   0  0  0  0  0  2           0  0  0
    1.3659    0.0000   -0.0000 O   0  0  0  0  0  2           0  0  0
    0.2196   -0.0024    2.3371 O   0  0  0  0  0  2           0  0  0
  -10.4391    2.6319    1.9342 O   0  0  0  0  0  2           0  0  0
    8.1025    2.2793   -0.5812 O   0  0  0  0  0  2           0  0  0
   -7.0353    0.0660    2.4549 N   0  0  0  0  0  3           0  0  0
   -4.9324   -0.0242   -1.0125 N   0  0  0  0  0  3           0  0  0
   -2.8758   -0.0236   -2.2436 N   0  0  0  0  0  3           0  0  0
   -4.9476    0.0220    1.3725 N   0  0  0  0  0  3           0  0  0
   -9.1843    3.6617    0.2986 N   0  0  0  0  0  3           0  0  0
    5.4967    1.1804   -0.1952 N   0  0  2  0  0  3           0  0  0
   -6.1855    0.5372    1.5617 C   0  0  0  0  0  4           0  0  0
   -8.2835    1.8121    1.5212 C   0  0  0  0  0  4           0  0  0
    0.0000    0.0000   -0.0000 C   0  0  0  0  0  4           0  0  0
   -0.6156   -0.0000    1.2556 C   0  0  0  0  0  4           0  0  0
   -4.2125   -0.0383   -2.1425 C   0  0  0  0  0  4           0  0  0
   -4.2388    0.0212    0.1525 C   0  0  0  0  0  4           0  0  0
   -2.1858   -0.0060   -1.0954 C   0  0  0  0  0  4           0  0  0
   -8.2145    0.7815    2.4347 C   0  0  0  0  0  4           0  0  0
  -10.0461    4.6716   -0.1693 C   0  0  0  0  0  4           0  0  0
   -2.8194    0.0078    0.1619 C   0  0  0  0  0  4           0  0  0
   -0.7937   -0.0075   -1.1541 C   0  0  0  0  0  4           0  0  0
   -2.0130    0.0014    1.3293 C   0  0  0  0  0  4           0  0  0
  -11.3313    4.8608    0.3533 C   0  0  0  0  0  4           0  0  0
   -9.5870    5.5089   -1.1927 C   0  0  0  0  0  4           0  0  0
  -12.1459    5.8791   -0.1468 C   0  0  0  0  0  4           0  0  0
  -10.4055    6.5249   -1.6890 C   0  0  0  0  0  4           0  0  0
  -11.6844    6.7098   -1.1667 C   0  0  0  0  0  4           0  0  0
   -9.3926    2.7132    1.2907 C   0  0  0  0  0  4           0  0  0
    1.9812    0.0000   -1.2882 C   0  0  0  0  0  4           0  0  0
    7.4751    2.3326    0.6994 C   0  0  0  0  0  4           0  0  0
    7.6935    1.1144   -1.2973 C   0  0  0  0  0  4           0  0  0
   -0.4267   -0.0023    3.6083 C   0  0  0  0  0  4           0  0  0
    5.9576    2.3647    0.5464 C   0  0  0  0  0  4           0  0  0
    6.1804    1.1144   -1.4979 C   0  0  0  0  0  4           0  0  0
    4.0395    1.2091   -0.3473 C   0  0  0  0  0  4           0  0  0
    3.4948    0.0000   -1.1130 C   0  0  0  0  0  4           0  0  0
  1 12  1  0     0  0
  1 13  1  0     0  0
  2 14  1  0     0  0
  2 30  1  0     0  0
  3 15  1  0     0  0
  3 33  1  0     0  0
  4 29  2  0     0  0
  5 31  1  0     0  0
  5 32  1  0     0  0
  6 12  2  0     0  0
  6 19  1  0     0  0
  7 16  1  0     0  0
  7 17  2  0     0  0
  8 16  2  0     0  0
  8 18  1  0     0  0
  9 12  1  0     0  0
  9 17  1  0     0  0
 10 20  1  0     0  0
 10 29  1  0     0  0
 11 34  1  0     0  0
 11 35  1  0     0  0
 11 36  1  0     0  0
 13 19  2  0     0  0
 13 29  1  0     0  0
 14 15  1  0     0  0
 14 22  2  0     0  0
 15 23  2  0     0  0
 17 21  1  0     0  0
 18 21  2  0     0  0
 18 22  1  0     0  0
 20 24  2  0     0  0
 20 25  1  0     0  0
 21 23  1  0     0  0
 24 26  1  0     0  0
 25 27  2  0     0  0
 26 28  2  0     0  0
 27 28  1  0     0  0
 30 37  1  0     0  0
 31 34  1  0     0  0
 32 35  1  0     0  0
 36 37  1  0     0  0
M  END
> <standard_type>
pIC50

> <# Confs.>
25

> <canonical_smiles>
O=C(C1=CN=C(NC2=NC=NC3=C2C=C(OC)C(OCCCN4CCOCC4)=C3)S1)NC5=CC=CC=C5

> <standard_relation>
=

> <Publication_ID>
nan

> <predicted_activity_value>
7.568636235841013

> <actual_activity_value>
7.376750709602099

> <Compound>
13

> <standard_units>
nM

> hash
14816628238382353164

$$$$
13_
XXILIB    08252103493D 0   0.00000     0.00000

 37 41  0     1  0            999 V2000
   -6.8098    1.8818    0.6563 S   0  0  0  0  0  2           0  0  0
    1.3659   -0.0000    0.0000 O   0  0  0  0  0  2           0  0  0
    0.2196   -0.0024    2.3371 O   0  0  0  0  0  2           0  0  0
  -10.4391    2.6319    1.9342 O   0  0  0  0  0  2           0  0  0
    2.0371   -6.2169   -0.3363 O   0  0  0  0  0  2           0  0  0
   -7.0353    0.0660    2.4549 N   0  0  0  0  0  3           0  0  0
   -4.9324   -0.0242   -1.0125 N   0  0  0  0  0  3           0  0  0
   -2.8758   -0.0236   -2.2436 N   0  0  0  0  0  3           0  0  0
   -4.9476    0.0220    1.3725 N   0  0  0  0  0  3           0  0  0
   -9.1843    3.6617    0.2986 N   0  0  0  0  0  3           0  0  0
    2.4052   -3.4184    0.0875 N   0  0  2  0  0  3           0  0  0
   -6.1855    0.5372    1.5617 C   0  0  0  0  0  4           0  0  0
   -8.2835    1.8121    1.5212 C   0  0  0  0  0  4           0  0  0
    0.0000    0.0000   -0.0000 C   0  0  0  0  0  4           0  0  0
   -0.6156   -0.0000    1.2556 C   0  0  0  0  0  4           0  0  0
   -4.2125   -0.0383   -2.1425 C   0  0  0  0  0  4           0  0  0
   -4.2388    0.0212    0.1525 C   0  0  0  0  0  4           0  0  0
   -2.1858   -0.0060   -1.0954 C   0  0  0  0  0  4           0  0  0
   -8.2145    0.7815    2.4347 C   0  0  0  0  0  4           0  0  0
  -10.0461    4.6716   -0.1693 C   0  0  0  0  0  4           0  0  0
   -2.8194    0.0078    0.1619 C   0  0  0  0  0  4           0  0  0
   -0.7937   -0.0075   -1.1541 C   0  0  0  0  0  4           0  0  0
   -2.0130    0.0014    1.3293 C   0  0  0  0  0  4           0  0  0
  -11.3313    4.8608    0.3533 C   0  0  0  0  0  4           0  0  0
   -9.5870    5.5089   -1.1927 C   0  0  0  0  0  4           0  0  0
  -12.1459    5.8791   -0.1468 C   0  0  0  0  0  4           0  0  0
  -10.4055    6.5249   -1.6890 C   0  0  0  0  0  4           0  0  0
  -11.6844    6.7098   -1.1667 C   0  0  0  0  0  4           0  0  0
   -9.3926    2.7132    1.2907 C   0  0  0  0  0  4           0  0  0
    1.9812   -0.6441   -1.1156 C   0  0  0  0  0  4           0  0  0
    1.5010   -5.5822    0.8239 C   0  0  0  0  0  4           0  0  0
    2.0635   -5.3137   -1.4410 C   0  0  0  0  0  4           0  0  0
   -0.4267   -0.0023    3.6083 C   0  0  0  0  0  4           0  0  0
    2.3476   -4.3722    1.2065 C   0  0  0  0  0  4           0  0  0
    2.9222   -4.0948   -1.1141 C   0  0  0  0  0  4           0  0  0
    3.2204   -2.2559    0.4498 C   0  0  0  0  0  4           0  0  0
    3.3205   -1.2222   -0.6757 C   0  0  0  0  0  4           0  0  0
  1 12  1  0     0  0
  1 13  1  0     0  0
  2 14  1  0     0  0
  2 30  1  0     0  0
  3 15  1  0     0  0
  3 33  1  0     0  0
  4 29  2  0     0  0
  5 31  1  0     0  0
  5 32  1  0     0  0
  6 12  2  0     0  0
  6 19  1  0     0  0
  7 16  1  0     0  0
  7 17  2  0     0  0
  8 16  2  0     0  0
  8 18  1  0     0  0
  9 12  1  0     0  0
  9 17  1  0     0  0
 10 20  1  0     0  0
 10 29  1  0     0  0
 11 34  1  0     0  0
 11 35  1  0     0  0
 11 36  1  0     0  0
 13 19  2  0     0  0
 13 29  1  0     0  0
 14 15  1  0     0  0
 14 22  2  0     0  0
 15 23  2  0     0  0
 17 21  1  0     0  0
 18 21  2  0     0  0
 18 22  1  0     0  0
 20 24  2  0     0  0
 20 25  1  0     0  0
 21 23  1  0     0  0
 24 26  1  0     0  0
 25 27  2  0     0  0
 26 28  2  0     0  0
 27 28  1  0     0  0
 30 37  1  0     0  0
 31 34  1  0     0  0
 32 35  1  0     0  0
 36 37  1  0     0  0
M  END
> <standard_type>
pIC50

> <# Confs.>
25

> <canonical_smiles>
O=C(C1=CN=C(NC2=NC=NC3=C2C=C(OC)C(OCCCN4CCOCC4)=C3)S1)NC5=CC=CC=C5

> <standard_relation>
=

> <Publication_ID>
nan

> <predicted_activity_value>
7.568636235841013

> <actual_activity_value>
7.376750709602099

> <Compound>
13

> <standard_units>
nM

> hash
14816628238382353164

$$$$
13_
XXILIB    08252103493D 0   0.00000     0.00000

 37 41  0     1  0            999 V2000
   -7.1093    1.2929    0.2996 S   0  0  0  0  0  2           0  0  0
    1.3659   -0.0000    0.0000 O   0  0  0  0  0  2           0  0  0
    0.2196   -0.0024    2.3371 O   0  0  0  0  0  2           0  0  0
  -10.5249    2.4659    1.8246 O   0  0  0  0  0  2           0  0  0
    2.0371   -6.2169   -0.3363 O   0  0  0  0  0  2           0  0  0
   -6.8071    0.5149    2.7258 N   0  0  0  0  0  3           0  0  0
   -4.9324   -0.0242   -1.0125 N   0  0  0  0  0  3           0  0  0
   -2.8758   -0.0236   -2.2436 N   0  0  0  0  0  3           0  0  0
   -4.9476    0.0220    1.3725 N   0  0  0  0  0  3           0  0  0
   -9.7008    2.6476   -0.3197 N   0  0  0  0  0  3           0  0  0
    2.4052   -3.4184    0.0875 N   0  0  2  0  0  3           0  0  0
   -6.1855    0.5372    1.5617 C   0  0  0  0  0  4           0  0  0
   -8.3928    1.5985    1.3877 C   0  0  0  0  0  4           0  0  0
    0.0000    0.0000   -0.0000 C   0  0  0  0  0  4           0  0  0
   -0.6156    0.0000    1.2556 C   0  0  0  0  0  4           0  0  0
   -4.2125   -0.0383   -2.1425 C   0  0  0  0  0  4           0  0  0
   -4.2388    0.0212    0.1525 C   0  0  0  0  0  4           0  0  0
   -2.1858   -0.0060   -1.0954 C   0  0  0  0  0  4           0  0  0
   -8.0471    1.1117    2.6307 C   0  0  0  0  0  4           0  0  0
  -10.7422    3.3046   -1.0019 C   0  0  0  0  0  4           0  0  0
   -2.8194    0.0078    0.1619 C   0  0  0  0  0  4           0  0  0
   -0.7937   -0.0075   -1.1541 C   0  0  0  0  0  4           0  0  0
   -2.0130    0.0014    1.3293 C   0  0  0  0  0  4           0  0  0
  -11.9307    3.6848   -0.3667 C   0  0  0  0  0  4           0  0  0
  -10.5679    3.5815   -2.3628 C   0  0  0  0  0  4           0  0  0
  -12.9325    4.3353   -1.0904 C   0  0  0  0  0  4           0  0  0
  -11.5725    4.2317   -3.0814 C   0  0  0  0  0  4           0  0  0
  -12.7544    4.6081   -2.4458 C   0  0  0  0  0  4           0  0  0
   -9.6224    2.2635    1.0120 C   0  0  0  0  0  4           0  0  0
    1.9812   -0.6441   -1.1156 C   0  0  0  0  0  4           0  0  0
    1.5010   -5.5822    0.8239 C   0  0  0  0  0  4           0  0  0
    2.0635   -5.3137   -1.4410 C   0  0  0  0  0  4           0  0  0
   -0.4267   -0.0023    3.6083 C   0  0  0  0  0  4           0  0  0
    2.3476   -4.3722    1.2065 C   0  0  0  0  0  4           0  0  0
    2.9222   -4.0948   -1.1141 C   0  0  0  0  0  4           0  0  0
    3.2204   -2.2559    0.4498 C   0  0  0  0  0  4           0  0  0
    3.3205   -1.2222   -0.6757 C   0  0  0  0  0  4           0  0  0
  1 12  1  0     0  0
  1 13  1  0     0  0
  2 14  1  0     0  0
  2 30  1  0     0  0
  3 15  1  0     0  0
  3 33  1  0     0  0
  4 29  2  0     0  0
  5 31  1  0     0  0
  5 32  1  0     0  0
  6 12  2  0     0  0
  6 19  1  0     0  0
  7 16  1  0     0  0
  7 17  2  0     0  0
  8 16  2  0     0  0
  8 18  1  0     0  0
  9 12  1  0     0  0
  9 17  1  0     0  0
 10 20  1  0     0  0
 10 29  1  0     0  0
 11 34  1  0     0  0
 11 35  1  0     0  0
 11 36  1  0     0  0
 13 19  2  0     0  0
 13 29  1  0     0  0
 14 15  1  0     0  0
 14 22  2  0     0  0
 15 23  2  0     0  0
 17 21  1  0     0  0
 18 21  2  0     0  0
 18 22  1  0     0  0
 20 24  2  0     0  0
 20 25  1  0     0  0
 21 23  1  0     0  0
 24 26  1  0     0  0
 25 27  2  0     0  0
 26 28  2  0     0  0
 27 28  1  0     0  0
 30 37  1  0     0  0
 31 34  1  0     0  0
 32 35  1  0     0  0
 36 37  1  0     0  0
M  END
> <standard_type>
pIC50

> <# Confs.>
25

> <canonical_smiles>
O=C(C1=CN=C(NC2=NC=NC3=C2C=C(OC)C(OCCCN4CCOCC4)=C3)S1)NC5=CC=CC=C5

> <standard_relation>
=

> <Publication_ID>
nan

> <predicted_activity_value>
7.568636235841013

> <actual_activity_value>
7.376750709602099

> <Compound>
13

> <standard_units>
nM

> hash
14816628238382353164

$$$$
13_
XXILIB    08252103493D 0   0.00000     0.00000

 37 41  0     1  0            999 V2000
   -7.0206   -1.4280    0.3529 S   0  0  0  0  0  2           0  0  0
    1.3659   -0.0000    0.0000 O   0  0  0  0  0  2           0  0  0
    0.2196   -0.0024    2.3371 O   0  0  0  0  0  2           0  0  0
  -10.3683   -2.7350    1.9188 O   0  0  0  0  0  2           0  0  0
    4.4943   -4.9468   -2.2261 O   0  0  0  0  0  2           0  0  0
   -6.7744   -0.5347    2.7454 N   0  0  0  0  0  3           0  0  0
   -4.9324   -0.0242   -1.0125 N   0  0  0  0  0  3           0  0  0
   -2.8758   -0.0236   -2.2436 N   0  0  0  0  0  3           0  0  0
   -4.9476    0.0220    1.3725 N   0  0  0  0  0  3           0  0  0
   -9.5237   -2.9605   -0.2133 N   0  0  0  0  0  3           0  0  0
    3.7324   -2.4848   -0.9996 N   0  0  2  0  0  3           0  0  0
   -6.1496   -0.5649    1.5832 C   0  0  0  0  0  4           0  0  0
   -8.2888   -1.7625    1.4502 C   0  0  0  0  0  4           0  0  0
    0.0000    0.0000    0.0000 C   0  0  0  0  0  4           0  0  0
   -0.6156   -0.0000    1.2556 C   0  0  0  0  0  4           0  0  0
   -4.2125   -0.0383   -2.1425 C   0  0  0  0  0  4           0  0  0
   -4.2388    0.0212    0.1525 C   0  0  0  0  0  4           0  0  0
   -2.1858   -0.0060   -1.0954 C   0  0  0  0  0  4           0  0  0
   -7.9772   -1.2061    2.6728 C   0  0  0  0  0  4           0  0  0
  -10.5200   -3.7086   -0.8684 C   0  0  0  0  0  4           0  0  0
   -2.8194    0.0078    0.1619 C   0  0  0  0  0  4           0  0  0
   -0.7937   -0.0075   -1.1541 C   0  0  0  0  0  4           0  0  0
   -2.0130    0.0014    1.3293 C   0  0  0  0  0  4           0  0  0
  -11.6866   -4.1318   -0.2199 C   0  0  0  0  0  4           0  0  0
  -10.3233   -4.0320   -2.2160 C   0  0  0  0  0  4           0  0  0
  -12.6443   -4.8716   -0.9171 C   0  0  0  0  0  4           0  0  0
  -11.2836   -4.7718   -2.9079 C   0  0  0  0  0  4           0  0  0
  -12.4433   -5.1918   -2.2589 C   0  0  0  0  0  4           0  0  0
   -9.4754   -2.5141    1.1004 C   0  0  0  0  0  4           0  0  0
    1.9812    0.0000   -1.2882 C   0  0  0  0  0  4           0  0  0
    3.9615   -4.9302   -0.9025 C   0  0  0  0  0  4           0  0  0
    3.9420   -3.8879   -3.0077 C   0  0  0  0  0  4           0  0  0
   -0.4267   -0.0023    3.6083 C   0  0  0  0  0  4           0  0  0
    4.2805   -3.6046   -0.2181 C   0  0  0  0  0  4           0  0  0
    4.2580   -2.5356   -2.3743 C   0  0  0  0  0  4           0  0  0
    4.0395   -1.2091   -0.3473 C   0  0  0  0  0  4           0  0  0
    3.4948   -0.0000   -1.1130 C   0  0  0  0  0  4           0  0  0
  1 12  1  0     0  0
  1 13  1  0     0  0
  2 14  1  0     0  0
  2 30  1  0     0  0
  3 15  1  0     0  0
  3 33  1  0     0  0
  4 29  2  0     0  0
  5 31  1  0     0  0
  5 32  1  0     0  0
  6 12  2  0     0  0
  6 19  1  0     0  0
  7 16  1  0     0  0
  7 17  2  0     0  0
  8 16  2  0     0  0
  8 18  1  0     0  0
  9 12  1  0     0  0
  9 17  1  0     0  0
 10 20  1  0     0  0
 10 29  1  0     0  0
 11 34  1  0     0  0
 11 35  1  0     0  0
 11 36  1  0     0  0
 13 19  2  0     0  0
 13 29  1  0     0  0
 14 15  1  0     0  0
 14 22  2  0     0  0
 15 23  2  0     0  0
 17 21  1  0     0  0
 18 21  2  0     0  0
 18 22  1  0     0  0
 20 24  2  0     0  0
 20 25  1  0     0  0
 21 23  1  0     0  0
 24 26  1  0     0  0
 25 27  2  0     0  0
 26 28  2  0     0  0
 27 28  1  0     0  0
 30 37  1  0     0  0
 31 34  1  0     0  0
 32 35  1  0     0  0
 36 37  1  0     0  0
M  END
> <standard_type>
pIC50

> <# Confs.>
25

> <canonical_smiles>
O=C(C1=CN=C(NC2=NC=NC3=C2C=C(OC)C(OCCCN4CCOCC4)=C3)S1)NC5=CC=CC=C5

> <standard_relation>
=

> <Publication_ID>
nan

> <predicted_activity_value>
7.568636235841013

> <actual_activity_value>
7.376750709602099

> <Compound>
13

> <standard_units>
nM

> hash
14816628238382353164

$$$$
13_
XXILIB    08252103493D 0   0.00000     0.00000

 37 41  0     1  0            999 V2000
   -6.8098    1.8818    0.6563 S   0  0  0  0  0  2           0  0  0
    1.3659   -0.0000    0.0000 O   0  0  0  0  0  2           0  0  0
    0.2196   -0.0024    2.3371 O   0  0  0  0  0  2           0  0  0
  -10.4391    2.6319    1.9342 O   0  0  0  0  0  2           0  0  0
    8.1037   -2.2718   -0.5942 O   0  0  0  0  0  2           0  0  0
   -7.0353    0.0660    2.4549 N   0  0  0  0  0  3           0  0  0
   -4.9324   -0.0242   -1.0125 N   0  0  0  0  0  3           0  0  0
   -2.8758   -0.0236   -2.2436 N   0  0  0  0  0  3           0  0  0
   -4.9476    0.0220    1.3725 N   0  0  0  0  0  3           0  0  0
   -9.1843    3.6617    0.2986 N   0  0  0  0  0  3           0  0  0
    5.4967   -1.1804   -0.1952 N   0  0  2  0  0  3           0  0  0
   -6.1855    0.5372    1.5617 C   0  0  0  0  0  4           0  0  0
   -8.2835    1.8121    1.5212 C   0  0  0  0  0  4           0  0  0
    0.0000    0.0000   -0.0000 C   0  0  0  0  0  4           0  0  0
   -0.6156   -0.0000    1.2556 C   0  0  0  0  0  4           0  0  0
   -4.2125   -0.0383   -2.1425 C   0  0  0  0  0  4           0  0  0
   -4.2388    0.0212    0.1525 C   0  0  0  0  0  4           0  0  0
   -2.1858   -0.0060   -1.0954 C   0  0  0  0  0  4           0  0  0
   -8.2145    0.7815    2.4347 C   0  0  0  0  0  4           0  0  0
  -10.0461    4.6716   -0.1693 C   0  0  0  0  0  4           0  0  0
   -2.8194    0.0078    0.1619 C   0  0  0  0  0  4           0  0  0
   -0.7937   -0.0075   -1.1541 C   0  0  0  0  0  4           0  0  0
   -2.0130    0.0014    1.3293 C   0  0  0  0  0  4           0  0  0
  -11.3313    4.8608    0.3533 C   0  0  0  0  0  4           0  0  0
   -9.5870    5.5089   -1.1927 C   0  0  0  0  0  4           0  0  0
  -12.1459    5.8791   -0.1468 C   0  0  0  0  0  4           0  0  0
  -10.4055    6.5249   -1.6890 C   0  0  0  0  0  4           0  0  0
  -11.6844    6.7098   -1.1667 C   0  0  0  0  0  4           0  0  0
   -9.3926    2.7132    1.2907 C   0  0  0  0  0  4           0  0  0
    1.9812    0.0000   -1.2882 C   0  0  0  0  0  4           0  0  0
    7.6657   -1.1442   -1.3512 C   0  0  0  0  0  4           0  0  0
    7.5077   -2.2735    0.7027 C   0  0  0  0  0  4           0  0  0
   -0.4267   -0.0023    3.6083 C   0  0  0  0  0  4           0  0  0
    6.1491   -1.1706   -1.5141 C   0  0  0  0  0  4           0  0  0
    5.9862   -2.3251    0.5913 C   0  0  0  0  0  4           0  0  0
    4.0395   -1.2091   -0.3473 C   0  0  0  0  0  4           0  0  0
    3.4948   -0.0000   -1.1130 C   0  0  0  0  0  4           0  0  0
  1 12  1  0     0  0
  1 13  1  0     0  0
  2 14  1  0     0  0
  2 30  1  0     0  0
  3 15  1  0     0  0
  3 33  1  0     0  0
  4 29  2  0     0  0
  5 31  1  0     0  0
  5 32  1  0     0  0
  6 12  2  0     0  0
  6 19  1  0     0  0
  7 16  1  0     0  0
  7 17  2  0     0  0
  8 16  2  0     0  0
  8 18  1  0     0  0
  9 12  1  0     0  0
  9 17  1  0     0  0
 10 20  1  0     0  0
 10 29  1  0     0  0
 11 34  1  0     0  0
 11 35  1  0     0  0
 11 36  1  0     0  0
 13 19  2  0     0  0
 13 29  1  0     0  0
 14 15  1  0     0  0
 14 22  2  0     0  0
 15 23  2  0     0  0
 17 21  1  0     0  0
 18 21  2  0     0  0
 18 22  1  0     0  0
 20 24  2  0     0  0
 20 25  1  0     0  0
 21 23  1  0     0  0
 24 26  1  0     0  0
 25 27  2  0     0  0
 26 28  2  0     0  0
 27 28  1  0     0  0
 30 37  1  0     0  0
 31 34  1  0     0  0
 32 35  1  0     0  0
 36 37  1  0     0  0
M  END
> <standard_type>
pIC50

> <# Confs.>
25

> <canonical_smiles>
O=C(C1=CN=C(NC2=NC=NC3=C2C=C(OC)C(OCCCN4CCOCC4)=C3)S1)NC5=CC=CC=C5

> <standard_relation>
=

> <Publication_ID>
nan

> <predicted_activity_value>
7.568636235841013

> <actual_activity_value>
7.376750709602099

> <Compound>
13

> <standard_units>
nM

> hash
14816628238382353164

$$$$
13_
XXILIB    08252103493D 0   0.00000     0.00000

 37 41  0     1  0            999 V2000
   -6.8098    1.8818    0.6563 S   0  0  0  0  0  2           0  0  0
    1.3659    0.0000    0.0000 O   0  0  0  0  0  2           0  0  0
    0.2196   -0.0024    2.3371 O   0  0  0  0  0  2           0  0  0
  -10.4391    2.6319    1.9342 O   0  0  0  0  0  2           0  0  0
    6.3695    4.9377    1.2239 O   0  0  0  0  0  2           0  0  0
   -7.0353    0.0660    2.4549 N   0  0  0  0  0  3           0  0  0
   -4.9324   -0.0242   -1.0125 N   0  0  0  0  0  3           0  0  0
   -2.8758   -0.0236   -2.2436 N   0  0  0  0  0  3           0  0  0
   -4.9476    0.0220    1.3725 N   0  0  0  0  0  3           0  0  0
   -9.1843    3.6617    0.2986 N   0  0  0  0  0  3           0  0  0
    4.5237    2.7929    0.8504 N   0  0  2  0  0  3           0  0  0
   -6.1855    0.5372    1.5617 C   0  0  0  0  0  4           0  0  0
   -8.2835    1.8121    1.5212 C   0  0  0  0  0  4           0  0  0
    0.0000    0.0000   -0.0000 C   0  0  0  0  0  4           0  0  0
   -0.6156   -0.0000    1.2556 C   0  0  0  0  0  4           0  0  0
   -4.2125   -0.0383   -2.1425 C   0  0  0  0  0  4           0  0  0
   -4.2388    0.0212    0.1525 C   0  0  0  0  0  4           0  0  0
   -2.1858   -0.0060   -1.0954 C   0  0  0  0  0  4           0  0  0
   -8.2145    0.7815    2.4347 C   0  0  0  0  0  4           0  0  0
  -10.0461    4.6716   -0.1693 C   0  0  0  0  0  4           0  0  0
   -2.8194    0.0078    0.1619 C   0  0  0  0  0  4           0  0  0
   -0.7937   -0.0075   -1.1541 C   0  0  0  0  0  4           0  0  0
   -2.0130    0.0014    1.3293 C   0  0  0  0  0  4           0  0  0
  -11.3313    4.8608    0.3533 C   0  0  0  0  0  4           0  0  0
   -9.5870    5.5089   -1.1927 C   0  0  0  0  0  4           0  0  0
  -12.1459    5.8791   -0.1468 C   0  0  0  0  0  4           0  0  0
  -10.4055    6.5249   -1.6890 C   0  0  0  0  0  4           0  0  0
  -11.6844    6.7098   -1.1667 C   0  0  0  0  0  4           0  0  0
   -9.3926    2.7132    1.2907 C   0  0  0  0  0  4           0  0  0
    1.9812    0.6441   -1.1156 C   0  0  0  0  0  4           0  0  0
    5.7198    4.3365    2.3432 C   0  0  0  0  0  4           0  0  0
    6.5680    3.9836    0.1812 C   0  0  0  0  0  4           0  0  0
   -0.4267   -0.0023    3.6083 C   0  0  0  0  0  4           0  0  0
    4.3613    3.7776    1.9317 C   0  0  0  0  0  4           0  0  0
    5.2304    3.4132   -0.2829 C   0  0  0  0  0  4           0  0  0
    3.2204    2.2559    0.4498 C   0  0  0  0  0  4           0  0  0
    3.3205    1.2222   -0.6757 C   0  0  0  0  0  4           0  0  0
  1 12  1  0     0  0
  1 13  1  0     0  0
  2 14  1  0     0  0
  2 30  1  0     0  0
  3 15  1  0     0  0
  3 33  1  0     0  0
  4 29  2  0     0  0
  5 31  1  0     0  0
  5 32  1  0     0  0
  6 12  2  0     0  0
  6 19  1  0     0  0
  7 16  1  0     0  0
  7 17  2  0     0  0
  8 16  2  0     0  0
  8 18  1  0     0  0
  9 12  1  0     0  0
  9 17  1  0     0  0
 10 20  1  0     0  0
 10 29  1  0     0  0
 11 34  1  0     0  0
 11 35  1  0     0  0
 11 36  1  0     0  0
 13 19  2  0     0  0
 13 29  1  0     0  0
 14 15  1  0     0  0
 14 22  2  0     0  0
 15 23  2  0     0  0
 17 21  1  0     0  0
 18 21  2  0     0  0
 18 22  1  0     0  0
 20 24  2  0     0  0
 20 25  1  0     0  0
 21 23  1  0     0  0
 24 26  1  0     0  0
 25 27  2  0     0  0
 26 28  2  0     0  0
 27 28  1  0     0  0
 30 37  1  0     0  0
 31 34  1  0     0  0
 32 35  1  0     0  0
 36 37  1  0     0  0
M  END
> <standard_type>
pIC50

> <# Confs.>
25

> <canonical_smiles>
O=C(C1=CN=C(NC2=NC=NC3=C2C=C(OC)C(OCCCN4CCOCC4)=C3)S1)NC5=CC=CC=C5

> <standard_relation>
=

> <Publication_ID>
nan

> <predicted_activity_value>
7.568636235841013

> <actual_activity_value>
7.376750709602099

> <Compound>
13

> <standard_units>
nM

> hash
14816628238382353164

$$$$
13_
XXILIB    08252103493D 0   0.00000     0.00000

 37 41  0     1  0            999 V2000
   -6.8098    1.8818    0.6563 S   0  0  0  0  0  2           0  0  0
    1.3659   -0.0000   -0.0000 O   0  0  0  0  0  2           0  0  0
    0.2196   -0.0024    2.3371 O   0  0  0  0  0  2           0  0  0
  -10.4391    2.6319    1.9342 O   0  0  0  0  0  2           0  0  0
    8.3274    1.1485   -2.5269 O   0  0  0  0  0  2           0  0  0
   -7.0353    0.0660    2.4549 N   0  0  0  0  0  3           0  0  0
   -4.9324   -0.0242   -1.0125 N   0  0  0  0  0  3           0  0  0
   -2.8758   -0.0236   -2.2436 N   0  0  0  0  0  3           0  0  0
   -4.9476    0.0220    1.3725 N   0  0  0  0  0  3           0  0  0
   -9.1843    3.6617    0.2986 N   0  0  0  0  0  3           0  0  0
    5.7318    0.0000   -2.2262 N   0  0  2  0  0  3           0  0  0
   -6.1855    0.5372    1.5617 C   0  0  0  0  0  4           0  0  0
   -8.2835    1.8121    1.5212 C   0  0  0  0  0  4           0  0  0
    0.0000    0.0000   -0.0000 C   0  0  0  0  0  4           0  0  0
   -0.6156   -0.0000    1.2556 C   0  0  0  0  0  4           0  0  0
   -4.2125   -0.0383   -2.1425 C   0  0  0  0  0  4           0  0  0
   -4.2388    0.0212    0.1525 C   0  0  0  0  0  4           0  0  0
   -2.1858   -0.0060   -1.0954 C   0  0  0  0  0  4           0  0  0
   -8.2145    0.7815    2.4347 C   0  0  0  0  0  4           0  0  0
  -10.0461    4.6716   -0.1693 C   0  0  0  0  0  4           0  0  0
   -2.8194    0.0078    0.1619 C   0  0  0  0  0  4           0  0  0
   -0.7937   -0.0075   -1.1541 C   0  0  0  0  0  4           0  0  0
   -2.0130    0.0014    1.3293 C   0  0  0  0  0  4           0  0  0
  -11.3313    4.8608    0.3533 C   0  0  0  0  0  4           0  0  0
   -9.5870    5.5089   -1.1927 C   0  0  0  0  0  4           0  0  0
  -12.1459    5.8791   -0.1468 C   0  0  0  0  0  4           0  0  0
  -10.4055    6.5249   -1.6890 C   0  0  0  0  0  4           0  0  0
  -11.6844    6.7098   -1.1667 C   0  0  0  0  0  4           0  0  0
   -9.3926    2.7132    1.2907 C   0  0  0  0  0  4           0  0  0
    1.9812    0.0000   -1.2882 C   0  0  0  0  0  4           0  0  0
    7.6561    1.1923   -1.2684 C   0  0  0  0  0  4           0  0  0
    7.9656   -0.0257   -3.2532 C   0  0  0  0  0  4           0  0  0
   -0.4267   -0.0023    3.6083 C   0  0  0  0  0  4           0  0  0
    6.1443    1.1946   -1.4727 C   0  0  0  0  0  4           0  0  0
    6.4603   -0.0555   -3.5048 C   0  0  0  0  0  4           0  0  0
    4.2803    0.0000   -2.4275 C   0  0  0  0  0  4           0  0  0
    3.4948   -0.0000   -1.1130 C   0  0  0  0  0  4           0  0  0
  1 12  1  0     0  0
  1 13  1  0     0  0
  2 14  1  0     0  0
  2 30  1  0     0  0
  3 15  1  0     0  0
  3 33  1  0     0  0
  4 29  2  0     0  0
  5 31  1  0     0  0
  5 32  1  0     0  0
  6 12  2  0     0  0
  6 19  1  0     0  0
  7 16  1  0     0  0
  7 17  2  0     0  0
  8 16  2  0     0  0
  8 18  1  0     0  0
  9 12  1  0     0  0
  9 17  1  0     0  0
 10 20  1  0     0  0
 10 29  1  0     0  0
 11 34  1  0     0  0
 11 35  1  0     0  0
 11 36  1  0     0  0
 13 19  2  0     0  0
 13 29  1  0     0  0
 14 15  1  0     0  0
 14 22  2  0     0  0
 15 23  2  0     0  0
 17 21  1  0     0  0
 18 21  2  0     0  0
 18 22  1  0     0  0
 20 24  2  0     0  0
 20 25  1  0     0  0
 21 23  1  0     0  0
 24 26  1  0     0  0
 25 27  2  0     0  0
 26 28  2  0     0  0
 27 28  1  0     0  0
 30 37  1  0     0  0
 31 34  1  0     0  0
 32 35  1  0     0  0
 36 37  1  0     0  0
M  END
> <standard_type>
pIC50

> <# Confs.>
25

> <canonical_smiles>
O=C(C1=CN=C(NC2=NC=NC3=C2C=C(OC)C(OCCCN4CCOCC4)=C3)S1)NC5=CC=CC=C5

> <standard_relation>
=

> <Publication_ID>
nan

> <predicted_activity_value>
7.568636235841013

> <actual_activity_value>
7.376750709602099

> <Compound>
13

> <standard_units>
nM

> hash
14816628238382353164

$$$$
13_
XXILIB    08252103493D 0   0.00000     0.00000

 37 41  0     1  0            999 V2000
   -7.0206   -1.4280    0.3529 S   0  0  0  0  0  2           0  0  0
    1.3659   -0.0000    0.0000 O   0  0  0  0  0  2           0  0  0
    0.2196   -0.0024    2.3371 O   0  0  0  0  0  2           0  0  0
  -10.3683   -2.7350    1.9188 O   0  0  0  0  0  2           0  0  0
    2.0371   -6.2169   -0.3363 O   0  0  0  0  0  2           0  0  0
   -6.7744   -0.5347    2.7454 N   0  0  0  0  0  3           0  0  0
   -4.9324   -0.0242   -1.0125 N   0  0  0  0  0  3           0  0  0
   -2.8758   -0.0236   -2.2436 N   0  0  0  0  0  3           0  0  0
   -4.9476    0.0220    1.3725 N   0  0  0  0  0  3           0  0  0
   -9.5237   -2.9605   -0.2133 N   0  0  0  0  0  3           0  0  0
    2.4052   -3.4184    0.0875 N   0  0  2  0  0  3           0  0  0
   -6.1496   -0.5649    1.5832 C   0  0  0  0  0  4           0  0  0
   -8.2888   -1.7625    1.4502 C   0  0  0  0  0  4           0  0  0
    0.0000    0.0000    0.0000 C   0  0  0  0  0  4           0  0  0
   -0.6156   -0.0000    1.2556 C   0  0  0  0  0  4           0  0  0
   -4.2125   -0.0383   -2.1425 C   0  0  0  0  0  4           0  0  0
   -4.2388    0.0212    0.1525 C   0  0  0  0  0  4           0  0  0
   -2.1858   -0.0060   -1.0954 C   0  0  0  0  0  4           0  0  0
   -7.9772   -1.2061    2.6728 C   0  0  0  0  0  4           0  0  0
  -10.5200   -3.7086   -0.8684 C   0  0  0  0  0  4           0  0  0
   -2.8194    0.0078    0.1619 C   0  0  0  0  0  4           0  0  0
   -0.7937   -0.0075   -1.1541 C   0  0  0  0  0  4           0  0  0
   -2.0130    0.0014    1.3293 C   0  0  0  0  0  4           0  0  0
  -11.6866   -4.1318   -0.2199 C   0  0  0  0  0  4           0  0  0
  -10.3233   -4.0320   -2.2160 C   0  0  0  0  0  4           0  0  0
  -12.6443   -4.8716   -0.9171 C   0  0  0  0  0  4           0  0  0
  -11.2836   -4.7718   -2.9079 C   0  0  0  0  0  4           0  0  0
  -12.4433   -5.1918   -2.2589 C   0  0  0  0  0  4           0  0  0
   -9.4754   -2.5141    1.1004 C   0  0  0  0  0  4           0  0  0
    1.9812   -0.6441   -1.1156 C   0  0  0  0  0  4           0  0  0
    1.5010   -5.5822    0.8239 C   0  0  0  0  0  4           0  0  0
    2.0635   -5.3137   -1.4410 C   0  0  0  0  0  4           0  0  0
   -0.4267   -0.0023    3.6083 C   0  0  0  0  0  4           0  0  0
    2.3476   -4.3722    1.2065 C   0  0  0  0  0  4           0  0  0
    2.9222   -4.0948   -1.1141 C   0  0  0  0  0  4           0  0  0
    3.2204   -2.2559    0.4498 C   0  0  0  0  0  4           0  0  0
    3.3205   -1.2222   -0.6757 C   0  0  0  0  0  4           0  0  0
  1 12  1  0     0  0
  1 13  1  0     0  0
  2 14  1  0     0  0
  2 30  1  0     0  0
  3 15  1  0     0  0
  3 33  1  0     0  0
  4 29  2  0     0  0
  5 31  1  0     0  0
  5 32  1  0     0  0
  6 12  2  0     0  0
  6 19  1  0     0  0
  7 16  1  0     0  0
  7 17  2  0     0  0
  8 16  2  0     0  0
  8 18  1  0     0  0
  9 12  1  0     0  0
  9 17  1  0     0  0
 10 20  1  0     0  0
 10 29  1  0     0  0
 11 34  1  0     0  0
 11 35  1  0     0  0
 11 36  1  0     0  0
 13 19  2  0     0  0
 13 29  1  0     0  0
 14 15  1  0     0  0
 14 22  2  0     0  0
 15 23  2  0     0  0
 17 21  1  0     0  0
 18 21  2  0     0  0
 18 22  1  0     0  0
 20 24  2  0     0  0
 20 25  1  0     0  0
 21 23  1  0     0  0
 24 26  1  0     0  0
 25 27  2  0     0  0
 26 28  2  0     0  0
 27 28  1  0     0  0
 30 37  1  0     0  0
 31 34  1  0     0  0
 32 35  1  0     0  0
 36 37  1  0     0  0
M  END
> <standard_type>
pIC50

> <# Confs.>
25

> <canonical_smiles>
O=C(C1=CN=C(NC2=NC=NC3=C2C=C(OC)C(OCCCN4CCOCC4)=C3)S1)NC5=CC=CC=C5

> <standard_relation>
=

> <Publication_ID>
nan

> <predicted_activity_value>
7.568636235841013

> <actual_activity_value>
7.376750709602099

> <Compound>
13

> <standard_units>
nM

> hash
14816628238382353164

$$$$
13_
XXILIB    08252103493D 0   0.00000     0.00000

 37 41  0     1  0            999 V2000
   -6.8098    1.8818    0.6563 S   0  0  0  0  0  2           0  0  0
    1.3659   -0.0000   -0.0000 O   0  0  0  0  0  2           0  0  0
    0.2196   -0.0024    2.3371 O   0  0  0  0  0  2           0  0  0
  -10.4391    2.6319    1.9342 O   0  0  0  0  0  2           0  0  0
    6.5010   -2.2692   -2.7741 O   0  0  0  0  0  2           0  0  0
   -7.0353    0.0660    2.4549 N   0  0  0  0  0  3           0  0  0
   -4.9324   -0.0242   -1.0125 N   0  0  0  0  0  3           0  0  0
   -2.8758   -0.0236   -2.2436 N   0  0  0  0  0  3           0  0  0
   -4.9476    0.0220    1.3725 N   0  0  0  0  0  3           0  0  0
   -9.1843    3.6617    0.2986 N   0  0  0  0  0  3           0  0  0
    4.6474   -0.8442   -1.1370 N   0  0  2  0  0  3           0  0  0
   -6.1855    0.5372    1.5617 C   0  0  0  0  0  4           0  0  0
   -8.2835    1.8121    1.5212 C   0  0  0  0  0  4           0  0  0
    0.0000    0.0000   -0.0000 C   0  0  0  0  0  4           0  0  0
   -0.6156   -0.0000    1.2556 C   0  0  0  0  0  4           0  0  0
   -4.2125   -0.0383   -2.1425 C   0  0  0  0  0  4           0  0  0
   -4.2388    0.0212    0.1525 C   0  0  0  0  0  4           0  0  0
   -2.1858   -0.0060   -1.0954 C   0  0  0  0  0  4           0  0  0
   -8.2145    0.7815    2.4347 C   0  0  0  0  0  4           0  0  0
  -10.0461    4.6716   -0.1693 C   0  0  0  0  0  4           0  0  0
   -2.8194    0.0078    0.1619 C   0  0  0  0  0  4           0  0  0
   -0.7937   -0.0075   -1.1541 C   0  0  0  0  0  4           0  0  0
   -2.0130    0.0014    1.3293 C   0  0  0  0  0  4           0  0  0
  -11.3313    4.8608    0.3533 C   0  0  0  0  0  4           0  0  0
   -9.5870    5.5089   -1.1927 C   0  0  0  0  0  4           0  0  0
  -12.1459    5.8791   -0.1468 C   0  0  0  0  0  4           0  0  0
  -10.4055    6.5249   -1.6890 C   0  0  0  0  0  4           0  0  0
  -11.6844    6.7098   -1.1667 C   0  0  0  0  0  4           0  0  0
   -9.3926    2.7132    1.2907 C   0  0  0  0  0  4           0  0  0
    1.9812    0.6441   -1.1156 C   0  0  0  0  0  4           0  0  0
    5.9498   -2.8754   -1.6057 C   0  0  0  0  0  4           0  0  0
    5.5719   -1.3560   -3.3570 C   0  0  0  0  0  4           0  0  0
   -0.4267   -0.0023    3.6083 C   0  0  0  0  0  4           0  0  0
    5.6003   -1.8114   -0.5699 C   0  0  0  0  0  4           0  0  0
    5.2102   -0.2549   -2.3636 C   0  0  0  0  0  4           0  0  0
    4.3114    0.1818   -0.1461 C   0  0  0  0  0  4           0  0  0
    3.3205    1.2222   -0.6757 C   0  0  0  0  0  4           0  0  0
  1 12  1  0     0  0
  1 13  1  0     0  0
  2 14  1  0     0  0
  2 30  1  0     0  0
  3 15  1  0     0  0
  3 33  1  0     0  0
  4 29  2  0     0  0
  5 31  1  0     0  0
  5 32  1  0     0  0
  6 12  2  0     0  0
  6 19  1  0     0  0
  7 16  1  0     0  0
  7 17  2  0     0  0
  8 16  2  0     0  0
  8 18  1  0     0  0
  9 12  1  0     0  0
  9 17  1  0     0  0
 10 20  1  0     0  0
 10 29  1  0     0  0
 11 34  1  0     0  0
 11 35  1  0     0  0
 11 36  1  0     0  0
 13 19  2  0     0  0
 13 29  1  0     0  0
 14 15  1  0     0  0
 14 22  2  0     0  0
 15 23  2  0     0  0
 17 21  1  0     0  0
 18 21  2  0     0  0
 18 22  1  0     0  0
 20 24  2  0     0  0
 20 25  1  0     0  0
 21 23  1  0     0  0
 24 26  1  0     0  0
 25 27  2  0     0  0
 26 28  2  0     0  0
 27 28  1  0     0  0
 30 37  1  0     0  0
 31 34  1  0     0  0
 32 35  1  0     0  0
 36 37  1  0     0  0
M  END
> <standard_type>
pIC50

> <# Confs.>
25

> <canonical_smiles>
O=C(C1=CN=C(NC2=NC=NC3=C2C=C(OC)C(OCCCN4CCOCC4)=C3)S1)NC5=CC=CC=C5

> <standard_relation>
=

> <Publication_ID>
nan

> <predicted_activity_value>
7.568636235841013

> <actual_activity_value>
7.376750709602099

> <Compound>
13

> <standard_units>
nM

> hash
14816628238382353164

$$$$
2_
XXILIB    08252103493D 0   0.00000     0.00000

 41 45  0     1  0            999 V2000
   -7.2332   -0.4203    2.2023 S   0  0  0  0  0  2           0  0  0
  -14.3587    3.4541    0.3448 F   0  0  0  0  0  1           0  0  0
    1.3665    0.0000    0.0000 O   0  0  0  0  0  2           0  0  0
   -0.2265    0.0177    2.3956 O   0  0  0  0  0  2           0  0  0
  -11.4107   -2.3597    0.6972 O   0  0  0  0  0  2           0  0  0
    7.4621    3.0949    6.1131 O   0  0  0  0  0  2           0  0  0
   -6.8922   -1.2910   -0.1929 N   0  0  0  0  0  3           0  0  0
   -4.7413   -0.1329   -1.6762 N   0  0  0  0  0  3           0  0  0
   -2.5341   -0.1745   -2.6127 N   0  0  0  0  0  3           0  0  0
   -5.0858    0.0071    0.6803 N   0  0  0  0  0  3           0  0  0
  -11.4350   -0.1535    1.4289 N   0  0  0  0  0  3           0  0  0
    6.2491    2.1865    4.2101 N   0  0  2  0  0  3           0  0  0
    4.3975    2.3992    1.9966 N   0  0  2  0  0  3           0  0  0
   -6.3032   -0.5809    0.7509 C   0  0  0  0  0  4           0  0  0
   -8.4901   -1.3570    1.5128 C   0  0  0  0  0  4           0  0  0
  -14.0132    2.1688    0.1861 C   0  0  0  0  0  4           0  0  0
    0.0000    0.0000    0.0000 C   0  0  0  0  0  4           0  0  0
   -0.7842   -0.0000    1.1485 C   0  0  0  0  0  4           0  0  0
   -3.8723   -0.1927   -2.6948 C   0  0  0  0  0  4           0  0  0
   -4.2160   -0.0351   -0.4296 C   0  0  0  0  0  4           0  0  0
   -2.0092   -0.0989   -1.3832 C   0  0  0  0  0  4           0  0  0
   -8.1294   -1.7265    0.2349 C   0  0  0  0  0  4           0  0  0
  -12.5485    0.3244    0.7133 C   0  0  0  0  0  4           0  0  0
   -2.8125   -0.0368   -0.2252 C   0  0  0  0  0  4           0  0  0
  -12.9113    1.6657    0.8742 C   0  0  0  0  0  4           0  0  0
  -14.7615    1.3604   -0.6631 C   0  0  0  0  0  4           0  0  0
   -0.6223   -0.0813   -1.2484 C   0  0  0  0  0  4           0  0  0
   -2.1764    0.0066    1.0400 C   0  0  0  0  0  4           0  0  0
  -13.2968   -0.4949   -0.1430 C   0  0  0  0  0  4           0  0  0
  -14.3996    0.0254   -0.8273 C   0  0  0  0  0  4           0  0  0
  -10.9476   -1.4478    1.3815 C   0  0  0  0  0  4           0  0  0
    6.6540    2.0355    5.6054 C   0  0  0  0  0  4           0  0  0
    1.9797    1.1167    0.6447 C   0  0  0  0  0  4           0  0  0
    0.0385   -1.2629    2.9630 C   0  0  0  0  0  4           0  0  0
    5.4656    3.4065    3.9941 C   0  0  0  0  0  4           0  0  0
    5.5200    1.0135    3.7190 C   0  0  0  0  0  4           0  0  0
    5.1278    3.5693    2.5081 C   0  0  0  0  0  4           0  0  0
    5.1786    1.1743    2.2329 C   0  0  0  0  0  4           0  0  0
    4.0809    2.5783    0.5762 C   0  0  0  0  0  4           0  0  0
   -9.7372   -1.6547    2.2634 C   0  0  0  0  0  4           0  0  0
    3.3185    1.3961   -0.0268 C   0  0  0  0  0  4           0  0  0
  1 14  1  0     0  0
  1 15  1  0     0  0
  2 16  1  0     0  0
  3 17  1  0     0  0
  3 33  1  0     0  0
  4 18  1  0     0  0
  4 34  1  0     0  0
  5 31  2  0     0  0
  6 32  1  0     0  0
  7 14  2  0     0  0
  7 22  1  0     0  0
  8 19  1  0     0  0
  8 20  2  0     0  0
  9 19  2  0     0  0
  9 21  1  0     0  0
 10 14  1  0     0  0
 10 20  1  0     0  0
 11 23  1  0     0  0
 11 31  1  0     0  0
 12 32  1  0     0  0
 12 35  1  0     0  0
 12 36  1  0     0  0
 13 37  1  0     0  0
 13 38  1  0     0  0
 13 39  1  0     0  0
 15 22  2  0     0  0
 15 40  1  0     0  0
 16 25  2  0     0  0
 16 26  1  0     0  0
 17 18  2  0     0  0
 17 27  1  0     0  0
 18 28  1  0     0  0
 20 24  1  0     0  0
 21 24  1  0     0  0
 21 27  2  0     0  0
 23 25  1  0     0  0
 23 29  2  0     0  0
 24 28  2  0     0  0
 26 30  2  0     0  0
 29 30  1  0     0  0
 31 40  1  0     0  0
 33 41  1  0     0  0
 35 37  1  0     0  0
 36 38  1  0     0  0
 39 41  1  0     0  0
M  END
> <standard_type>
pIC50

> <# Confs.>
25

> <canonical_smiles>
FC1=CC(NC(CC2=CN=C(NC(C3=C4)=NC=NC3=CC(OCCCN5CCN(CO)CC5)=C4OC)S2)=O)=CC=C1

> <standard_relation>
=

> <Publication_ID>
nan

> <predicted_activity_value>
8.080921907623926

> <actual_activity_value>
8.154901959985743

> <Compound>
2

> <standard_units>
nM

> hash
10397007601345888930

$$$$
2_
XXILIB    08252103493D 0   0.00000     0.00000

 41 45  0     1  0            999 V2000
   -7.2332   -0.4203    2.2023 S   0  0  0  0  0  2           0  0  0
  -11.9157    4.6369    4.8730 F   0  0  0  0  0  1           0  0  0
    1.3665    0.0000    0.0000 O   0  0  0  0  0  2           0  0  0
   -0.2265    0.0177    2.3956 O   0  0  0  0  0  2           0  0  0
  -11.5799   -0.6700    1.0863 O   0  0  0  0  0  2           0  0  0
    7.4621    3.0949    6.1131 O   0  0  0  0  0  2           0  0  0
   -6.8922   -1.2910   -0.1929 N   0  0  0  0  0  3           0  0  0
   -4.7413   -0.1329   -1.6762 N   0  0  0  0  0  3           0  0  0
   -2.5341   -0.1745   -2.6127 N   0  0  0  0  0  3           0  0  0
   -5.0858    0.0071    0.6803 N   0  0  0  0  0  3           0  0  0
  -10.6925    0.4674    2.9089 N   0  0  0  0  0  3           0  0  0
    6.2491    2.1865    4.2101 N   0  0  2  0  0  3           0  0  0
    4.3975    2.3992    1.9966 N   0  0  2  0  0  3           0  0  0
   -6.3032   -0.5809    0.7509 C   0  0  0  0  0  4           0  0  0
   -8.4901   -1.3570    1.5128 C   0  0  0  0  0  4           0  0  0
  -12.1253    3.7054    3.9323 C   0  0  0  0  0  4           0  0  0
    0.0000    0.0000    0.0000 C   0  0  0  0  0  4           0  0  0
   -0.7842   -0.0000    1.1485 C   0  0  0  0  0  4           0  0  0
   -3.8723   -0.1927   -2.6948 C   0  0  0  0  0  4           0  0  0
   -4.2160   -0.0351   -0.4296 C   0  0  0  0  0  4           0  0  0
   -2.0092   -0.0989   -1.3832 C   0  0  0  0  0  4           0  0  0
   -8.1294   -1.7265    0.2349 C   0  0  0  0  0  4           0  0  0
  -11.5279    1.5999    2.9149 C   0  0  0  0  0  4           0  0  0
   -2.8125   -0.0368   -0.2252 C   0  0  0  0  0  4           0  0  0
  -11.3112    2.5755    3.8936 C   0  0  0  0  0  4           0  0  0
  -13.1524    3.8839    3.0114 C   0  0  0  0  0  4           0  0  0
   -0.6223   -0.0813   -1.2484 C   0  0  0  0  0  4           0  0  0
   -2.1764    0.0066    1.0400 C   0  0  0  0  0  4           0  0  0
  -12.5594    1.7751    1.9823 C   0  0  0  0  0  4           0  0  0
  -13.3673    2.9152    2.0340 C   0  0  0  0  0  4           0  0  0
  -10.7742   -0.5836    2.0124 C   0  0  0  0  0  4           0  0  0
    6.6540    2.0355    5.6054 C   0  0  0  0  0  4           0  0  0
    1.9797    1.1167    0.6447 C   0  0  0  0  0  4           0  0  0
    0.0385   -1.2629    2.9630 C   0  0  0  0  0  4           0  0  0
    5.4656    3.4065    3.9941 C   0  0  0  0  0  4           0  0  0
    5.5200    1.0135    3.7190 C   0  0  0  0  0  4           0  0  0
    5.1278    3.5693    2.5081 C   0  0  0  0  0  4           0  0  0
    5.1786    1.1743    2.2329 C   0  0  0  0  0  4           0  0  0
    4.0809    2.5783    0.5762 C   0  0  0  0  0  4           0  0  0
   -9.7372   -1.6547    2.2634 C   0  0  0  0  0  4           0  0  0
    3.3185    1.3961   -0.0268 C   0  0  0  0  0  4           0  0  0
  1 14  1  0     0  0
  1 15  1  0     0  0
  2 16  1  0     0  0
  3 17  1  0     0  0
  3 33  1  0     0  0
  4 18  1  0     0  0
  4 34  1  0     0  0
  5 31  2  0     0  0
  6 32  1  0     0  0
  7 14  2  0     0  0
  7 22  1  0     0  0
  8 19  1  0     0  0
  8 20  2  0     0  0
  9 19  2  0     0  0
  9 21  1  0     0  0
 10 14  1  0     0  0
 10 20  1  0     0  0
 11 23  1  0     0  0
 11 31  1  0     0  0
 12 32  1  0     0  0
 12 35  1  0     0  0
 12 36  1  0     0  0
 13 37  1  0     0  0
 13 38  1  0     0  0
 13 39  1  0     0  0
 15 22  2  0     0  0
 15 40  1  0     0  0
 16 25  2  0     0  0
 16 26  1  0     0  0
 17 18  2  0     0  0
 17 27  1  0     0  0
 18 28  1  0     0  0
 20 24  1  0     0  0
 21 24  1  0     0  0
 21 27  2  0     0  0
 23 25  1  0     0  0
 23 29  2  0     0  0
 24 28  2  0     0  0
 26 30  2  0     0  0
 29 30  1  0     0  0
 31 40  1  0     0  0
 33 41  1  0     0  0
 35 37  1  0     0  0
 36 38  1  0     0  0
 39 41  1  0     0  0
M  END
> <standard_type>
pIC50

> <# Confs.>
25

> <canonical_smiles>
FC1=CC(NC(CC2=CN=C(NC(C3=C4)=NC=NC3=CC(OCCCN5CCN(CO)CC5)=C4OC)S2)=O)=CC=C1

> <standard_relation>
=

> <Publication_ID>
nan

> <predicted_activity_value>
8.080921907623926

> <actual_activity_value>
8.154901959985743

> <Compound>
2

> <standard_units>
nM

> hash
10397007601345888930

$$$$
2_
XXILIB    08252103493D 0   0.00000     0.00000

 41 45  0     1  0            999 V2000
   -7.2332   -0.4203    2.2023 S   0  0  0  0  0  2           0  0  0
   -7.6621   -3.9741    8.7019 F   0  0  0  0  0  1           0  0  0
    1.3665    0.0000    0.0000 O   0  0  0  0  0  2           0  0  0
   -0.2265    0.0177    2.3956 O   0  0  0  0  0  2           0  0  0
   -9.8880   -4.0289    2.5653 O   0  0  0  0  0  2           0  0  0
    7.4621    3.0949    6.1131 O   0  0  0  0  0  2           0  0  0
   -6.8922   -1.2910   -0.1929 N   0  0  0  0  0  3           0  0  0
   -4.7413   -0.1329   -1.6762 N   0  0  0  0  0  3           0  0  0
   -2.5341   -0.1745   -2.6127 N   0  0  0  0  0  3           0  0  0
   -5.0858    0.0071    0.6803 N   0  0  0  0  0  3           0  0  0
   -9.1087   -2.7332    4.3308 N   0  0  0  0  0  3           0  0  0
    6.2491    2.1865    4.2101 N   0  0  2  0  0  3           0  0  0
    4.3975    2.3992    1.9966 N   0  0  2  0  0  3           0  0  0
   -6.3032   -0.5809    0.7509 C   0  0  0  0  0  4           0  0  0
   -8.4901   -1.3570    1.5128 C   0  0  0  0  0  4           0  0  0
   -8.1318   -4.3397    7.5010 C   0  0  0  0  0  4           0  0  0
    0.0000    0.0000    0.0000 C   0  0  0  0  0  4           0  0  0
   -0.7842   -0.0000    1.1485 C   0  0  0  0  0  4           0  0  0
   -3.8723   -0.1927   -2.6948 C   0  0  0  0  0  4           0  0  0
   -4.2160   -0.0351   -0.4296 C   0  0  0  0  0  4           0  0  0
   -2.0092   -0.0989   -1.3832 C   0  0  0  0  0  4           0  0  0
   -8.1294   -1.7265    0.2349 C   0  0  0  0  0  4           0  0  0
   -8.8721   -3.7422    5.2828 C   0  0  0  0  0  4           0  0  0
   -2.8125   -0.0368   -0.2252 C   0  0  0  0  0  4           0  0  0
   -8.3840   -3.3649    6.5382 C   0  0  0  0  0  4           0  0  0
   -8.3589   -5.6865    7.2377 C   0  0  0  0  0  4           0  0  0
   -0.6223   -0.0813   -1.2484 C   0  0  0  0  0  4           0  0  0
   -2.1764    0.0066    1.0400 C   0  0  0  0  0  4           0  0  0
   -9.1056   -5.0974    5.0121 C   0  0  0  0  0  4           0  0  0
   -8.8482   -6.0638    5.9894 C   0  0  0  0  0  4           0  0  0
   -9.5884   -2.9377    3.0490 C   0  0  0  0  0  4           0  0  0
    6.6540    2.0355    5.6054 C   0  0  0  0  0  4           0  0  0
    1.9797    1.1167    0.6447 C   0  0  0  0  0  4           0  0  0
    0.0385   -1.2629    2.9630 C   0  0  0  0  0  4           0  0  0
    5.4656    3.4065    3.9941 C   0  0  0  0  0  4           0  0  0
    5.5200    1.0135    3.7190 C   0  0  0  0  0  4           0  0  0
    5.1278    3.5693    2.5081 C   0  0  0  0  0  4           0  0  0
    5.1786    1.1743    2.2329 C   0  0  0  0  0  4           0  0  0
    4.0809    2.5783    0.5762 C   0  0  0  0  0  4           0  0  0
   -9.7372   -1.6547    2.2634 C   0  0  0  0  0  4           0  0  0
    3.3185    1.3961   -0.0268 C   0  0  0  0  0  4           0  0  0
  1 14  1  0     0  0
  1 15  1  0     0  0
  2 16  1  0     0  0
  3 17  1  0     0  0
  3 33  1  0     0  0
  4 18  1  0     0  0
  4 34  1  0     0  0
  5 31  2  0     0  0
  6 32  1  0     0  0
  7 14  2  0     0  0
  7 22  1  0     0  0
  8 19  1  0     0  0
  8 20  2  0     0  0
  9 19  2  0     0  0
  9 21  1  0     0  0
 10 14  1  0     0  0
 10 20  1  0     0  0
 11 23  1  0     0  0
 11 31  1  0     0  0
 12 32  1  0     0  0
 12 35  1  0     0  0
 12 36  1  0     0  0
 13 37  1  0     0  0
 13 38  1  0     0  0
 13 39  1  0     0  0
 15 22  2  0     0  0
 15 40  1  0     0  0
 16 25  2  0     0  0
 16 26  1  0     0  0
 17 18  2  0     0  0
 17 27  1  0     0  0
 18 28  1  0     0  0
 20 24  1  0     0  0
 21 24  1  0     0  0
 21 27  2  0     0  0
 23 25  1  0     0  0
 23 29  2  0     0  0
 24 28  2  0     0  0
 26 30  2  0     0  0
 29 30  1  0     0  0
 31 40  1  0     0  0
 33 41  1  0     0  0
 35 37  1  0     0  0
 36 38  1  0     0  0
 39 41  1  0     0  0
M  END
> <standard_type>
pIC50

> <# Confs.>
25

> <canonical_smiles>
FC1=CC(NC(CC2=CN=C(NC(C3=C4)=NC=NC3=CC(OCCCN5CCN(CO)CC5)=C4OC)S2)=O)=CC=C1

> <standard_relation>
=

> <Publication_ID>
nan

> <predicted_activity_value>
8.080921907623926

> <actual_activity_value>
8.154901959985743

> <Compound>
2

> <standard_units>
nM

> hash
10397007601345888930

$$$$
2_
XXILIB    08252103493D 0   0.00000     0.00000

 41 45  0     1  0            999 V2000
   -7.2332   -0.4203    2.2023 S   0  0  0  0  0  2           0  0  0
   -8.6720   -7.9735    5.4377 F   0  0  0  0  0  1           0  0  0
    1.3665    0.0000    0.0000 O   0  0  0  0  0  2           0  0  0
   -0.2265    0.0177    2.3956 O   0  0  0  0  0  2           0  0  0
  -10.8348   -3.5031    1.2007 O   0  0  0  0  0  2           0  0  0
    7.4621    3.0949    6.1131 O   0  0  0  0  0  2           0  0  0
   -6.8922   -1.2910   -0.1929 N   0  0  0  0  0  3           0  0  0
   -4.7413   -0.1329   -1.6762 N   0  0  0  0  0  3           0  0  0
   -2.5341   -0.1745   -2.6127 N   0  0  0  0  0  3           0  0  0
   -5.0858    0.0071    0.6803 N   0  0  0  0  0  3           0  0  0
   -9.5654   -3.9120    3.1045 N   0  0  0  0  0  3           0  0  0
    6.2491    2.1865    4.2101 N   0  0  2  0  0  3           0  0  0
    4.3975    2.3992    1.9966 N   0  0  2  0  0  3           0  0  0
   -6.3032   -0.5809    0.7509 C   0  0  0  0  0  4           0  0  0
   -8.4901   -1.3570    1.5128 C   0  0  0  0  0  4           0  0  0
   -9.2707   -7.3434    4.4175 C   0  0  0  0  0  4           0  0  0
    0.0000    0.0000    0.0000 C   0  0  0  0  0  4           0  0  0
   -0.7842   -0.0000    1.1485 C   0  0  0  0  0  4           0  0  0
   -3.8723   -0.1927   -2.6948 C   0  0  0  0  0  4           0  0  0
   -4.2160   -0.0351   -0.4296 C   0  0  0  0  0  4           0  0  0
   -2.0092   -0.0989   -1.3832 C   0  0  0  0  0  4           0  0  0
   -8.1294   -1.7265    0.2349 C   0  0  0  0  0  4           0  0  0
   -9.7428   -5.3034    3.2169 C   0  0  0  0  0  4           0  0  0
   -2.8125   -0.0368   -0.2252 C   0  0  0  0  0  4           0  0  0
   -9.1216   -5.9649    4.2815 C   0  0  0  0  0  4           0  0  0
  -10.0302   -8.0775    3.5125 C   0  0  0  0  0  4           0  0  0
   -0.6223   -0.0813   -1.2484 C   0  0  0  0  0  4           0  0  0
   -2.1764    0.0066    1.0400 C   0  0  0  0  0  4           0  0  0
  -10.5117   -6.0370    2.3031 C   0  0  0  0  0  4           0  0  0
  -10.6523   -7.4200    2.4539 C   0  0  0  0  0  4           0  0  0
  -10.1091   -3.1124    2.1145 C   0  0  0  0  0  4           0  0  0
    6.6540    2.0355    5.6054 C   0  0  0  0  0  4           0  0  0
    1.9797    1.1167    0.6447 C   0  0  0  0  0  4           0  0  0
    0.0385   -1.2629    2.9630 C   0  0  0  0  0  4           0  0  0
    5.4656    3.4065    3.9941 C   0  0  0  0  0  4           0  0  0
    5.5200    1.0135    3.7190 C   0  0  0  0  0  4           0  0  0
    5.1278    3.5693    2.5081 C   0  0  0  0  0  4           0  0  0
    5.1786    1.1743    2.2329 C   0  0  0  0  0  4           0  0  0
    4.0809    2.5783    0.5762 C   0  0  0  0  0  4           0  0  0
   -9.7372   -1.6547    2.2634 C   0  0  0  0  0  4           0  0  0
    3.3185    1.3961   -0.0268 C   0  0  0  0  0  4           0  0  0
  1 14  1  0     0  0
  1 15  1  0     0  0
  2 16  1  0     0  0
  3 17  1  0     0  0
  3 33  1  0     0  0
  4 18  1  0     0  0
  4 34  1  0     0  0
  5 31  2  0     0  0
  6 32  1  0     0  0
  7 14  2  0     0  0
  7 22  1  0     0  0
  8 19  1  0     0  0
  8 20  2  0     0  0
  9 19  2  0     0  0
  9 21  1  0     0  0
 10 14  1  0     0  0
 10 20  1  0     0  0
 11 23  1  0     0  0
 11 31  1  0     0  0
 12 32  1  0     0  0
 12 35  1  0     0  0
 12 36  1  0     0  0
 13 37  1  0     0  0
 13 38  1  0     0  0
 13 39  1  0     0  0
 15 22  2  0     0  0
 15 40  1  0     0  0
 16 25  2  0     0  0
 16 26  1  0     0  0
 17 18  2  0     0  0
 17 27  1  0     0  0
 18 28  1  0     0  0
 20 24  1  0     0  0
 21 24  1  0     0  0
 21 27  2  0     0  0
 23 25  1  0     0  0
 23 29  2  0     0  0
 24 28  2  0     0  0
 26 30  2  0     0  0
 29 30  1  0     0  0
 31 40  1  0     0  0
 33 41  1  0     0  0
 35 37  1  0     0  0
 36 38  1  0     0  0
 39 41  1  0     0  0
M  END
> <standard_type>
pIC50

> <# Confs.>
25

> <canonical_smiles>
FC1=CC(NC(CC2=CN=C(NC(C3=C4)=NC=NC3=CC(OCCCN5CCN(CO)CC5)=C4OC)S2)=O)=CC=C1

> <standard_relation>
=

> <Publication_ID>
nan

> <predicted_activity_value>
8.080921907623926

> <actual_activity_value>
8.154901959985743

> <Compound>
2

> <standard_units>
nM

> hash
10397007601345888930

$$$$
2_
XXILIB    08252103493D 0   0.00000     0.00000

 41 45  0     1  0            999 V2000
   -7.2332   -0.4203    2.2023 S   0  0  0  0  0  2           0  0  0
  -14.3587    3.4541    0.3448 F   0  0  0  0  0  1           0  0  0
    1.3665   -0.0000   -0.0000 O   0  0  0  0  0  2           0  0  0
   -0.2265    0.0177    2.3956 O   0  0  0  0  0  2           0  0  0
  -11.4107   -2.3597    0.6972 O   0  0  0  0  0  2           0  0  0
    1.2660    7.1436   -4.5553 O   0  0  0  0  0  2           0  0  0
   -6.8922   -1.2910   -0.1929 N   0  0  0  0  0  3           0  0  0
   -4.7413   -0.1329   -1.6762 N   0  0  0  0  0  3           0  0  0
   -2.5341   -0.1745   -2.6127 N   0  0  0  0  0  3           0  0  0
   -5.0858    0.0071    0.6803 N   0  0  0  0  0  3           0  0  0
  -11.4350   -0.1535    1.4289 N   0  0  0  0  0  3           0  0  0
    2.0025    5.5783   -2.8449 N   0  0  2  0  0  3           0  0  0
    2.3915    2.9124   -1.7892 N   0  0  2  0  0  3           0  0  0
   -6.3032   -0.5809    0.7509 C   0  0  0  0  0  4           0  0  0
   -8.4901   -1.3570    1.5128 C   0  0  0  0  0  4           0  0  0
  -14.0132    2.1688    0.1861 C   0  0  0  0  0  4           0  0  0
    0.0000    0.0000    0.0000 C   0  0  0  0  0  4           0  0  0
   -0.7842   -0.0000    1.1485 C   0  0  0  0  0  4           0  0  0
   -3.8723   -0.1927   -2.6948 C   0  0  0  0  0  4           0  0  0
   -4.2160   -0.0351   -0.4296 C   0  0  0  0  0  4           0  0  0
   -2.0092   -0.0989   -1.3832 C   0  0  0  0  0  4           0  0  0
   -8.1294   -1.7265    0.2349 C   0  0  0  0  0  4           0  0  0
  -12.5485    0.3244    0.7133 C   0  0  0  0  0  4           0  0  0
   -2.8125   -0.0368   -0.2252 C   0  0  0  0  0  4           0  0  0
  -12.9113    1.6657    0.8742 C   0  0  0  0  0  4           0  0  0
  -14.7615    1.3604   -0.6631 C   0  0  0  0  0  4           0  0  0
   -0.6223   -0.0813   -1.2484 C   0  0  0  0  0  4           0  0  0
   -2.1764    0.0066    1.0400 C   0  0  0  0  0  4           0  0  0
  -13.2968   -0.4949   -0.1430 C   0  0  0  0  0  4           0  0  0
  -14.3996    0.0254   -0.8273 C   0  0  0  0  0  4           0  0  0
  -10.9476   -1.4478    1.3815 C   0  0  0  0  0  4           0  0  0
    1.2579    6.7912   -3.1737 C   0  0  0  0  0  4           0  0  0
    1.9797    1.1167    0.6447 C   0  0  0  0  0  4           0  0  0
    0.0385   -1.2629    2.9630 C   0  0  0  0  0  4           0  0  0
    1.4760    4.4033   -3.5455 C   0  0  0  0  0  4           0  0  0
    2.0500    5.3369   -1.3999 C   0  0  0  0  0  4           0  0  0
    2.3301    3.1688   -3.2365 C   0  0  0  0  0  4           0  0  0
    2.9022    4.1011   -1.0876 C   0  0  0  0  0  4           0  0  0
    3.2088    1.7258   -1.5173 C   0  0  0  0  0  4           0  0  0
   -9.7372   -1.6547    2.2634 C   0  0  0  0  0  4           0  0  0
    3.3185    1.3961   -0.0268 C   0  0  0  0  0  4           0  0  0
  1 14  1  0     0  0
  1 15  1  0     0  0
  2 16  1  0     0  0
  3 17  1  0     0  0
  3 33  1  0     0  0
  4 18  1  0     0  0
  4 34  1  0     0  0
  5 31  2  0     0  0
  6 32  1  0     0  0
  7 14  2  0     0  0
  7 22  1  0     0  0
  8 19  1  0     0  0
  8 20  2  0     0  0
  9 19  2  0     0  0
  9 21  1  0     0  0
 10 14  1  0     0  0
 10 20  1  0     0  0
 11 23  1  0     0  0
 11 31  1  0     0  0
 12 32  1  0     0  0
 12 35  1  0     0  0
 12 36  1  0     0  0
 13 37  1  0     0  0
 13 38  1  0     0  0
 13 39  1  0     0  0
 15 22  2  0     0  0
 15 40  1  0     0  0
 16 25  2  0     0  0
 16 26  1  0     0  0
 17 18  2  0     0  0
 17 27  1  0     0  0
 18 28  1  0     0  0
 20 24  1  0     0  0
 21 24  1  0     0  0
 21 27  2  0     0  0
 23 25  1  0     0  0
 23 29  2  0     0  0
 24 28  2  0     0  0
 26 30  2  0     0  0
 29 30  1  0     0  0
 31 40  1  0     0  0
 33 41  1  0     0  0
 35 37  1  0     0  0
 36 38  1  0     0  0
 39 41  1  0     0  0
M  END
> <standard_type>
pIC50

> <# Confs.>
25

> <canonical_smiles>
FC1=CC(NC(CC2=CN=C(NC(C3=C4)=NC=NC3=CC(OCCCN5CCN(CO)CC5)=C4OC)S2)=O)=CC=C1

> <standard_relation>
=

> <Publication_ID>
nan

> <predicted_activity_value>
8.080921907623926

> <actual_activity_value>
8.154901959985743

> <Compound>
2

> <standard_units>
nM

> hash
10397007601345888930

$$$$
2_
XXILIB    08252103493D 0   0.00000     0.00000

 41 45  0     1  0            999 V2000
   -7.2332   -0.4203    2.2023 S   0  0  0  0  0  2           0  0  0
  -14.3587    3.4541    0.3448 F   0  0  0  0  0  1           0  0  0
    1.3665   -0.0000   -0.0000 O   0  0  0  0  0  2           0  0  0
   -0.2265    0.0177    2.3956 O   0  0  0  0  0  2           0  0  0
  -11.4107   -2.3597    0.6972 O   0  0  0  0  0  2           0  0  0
    5.4025    3.4340    7.4849 O   0  0  0  0  0  2           0  0  0
   -6.8922   -1.2910   -0.1929 N   0  0  0  0  0  3           0  0  0
   -4.7413   -0.1329   -1.6762 N   0  0  0  0  0  3           0  0  0
   -2.5341   -0.1745   -2.6127 N   0  0  0  0  0  3           0  0  0
   -5.0858    0.0071    0.6803 N   0  0  0  0  0  3           0  0  0
  -11.4350   -0.1535    1.4289 N   0  0  0  0  0  3           0  0  0
    4.7708    2.2935    5.4311 N   0  0  2  0  0  3           0  0  0
    3.9871    2.2497    2.6460 N   0  0  2  0  0  3           0  0  0
   -6.3032   -0.5809    0.7509 C   0  0  0  0  0  4           0  0  0
   -8.4901   -1.3570    1.5128 C   0  0  0  0  0  4           0  0  0
  -14.0132    2.1688    0.1861 C   0  0  0  0  0  4           0  0  0
    0.0000    0.0000    0.0000 C   0  0  0  0  0  4           0  0  0
   -0.7842   -0.0000    1.1485 C   0  0  0  0  0  4           0  0  0
   -3.8723   -0.1927   -2.6948 C   0  0  0  0  0  4           0  0  0
   -4.2160   -0.0351   -0.4296 C   0  0  0  0  0  4           0  0  0
   -2.0092   -0.0989   -1.3832 C   0  0  0  0  0  4           0  0  0
   -8.1294   -1.7265    0.2349 C   0  0  0  0  0  4           0  0  0
  -12.5485    0.3244    0.7133 C   0  0  0  0  0  4           0  0  0
   -2.8125   -0.0368   -0.2252 C   0  0  0  0  0  4           0  0  0
  -12.9113    1.6657    0.8742 C   0  0  0  0  0  4           0  0  0
  -14.7615    1.3604   -0.6631 C   0  0  0  0  0  4           0  0  0
   -0.6223   -0.0813   -1.2484 C   0  0  0  0  0  4           0  0  0
   -2.1764    0.0066    1.0400 C   0  0  0  0  0  4           0  0  0
  -13.2968   -0.4949   -0.1430 C   0  0  0  0  0  4           0  0  0
  -14.3996    0.0254   -0.8273 C   0  0  0  0  0  4           0  0  0
  -10.9476   -1.4478    1.3815 C   0  0  0  0  0  4           0  0  0
    4.5811    2.4428    6.8717 C   0  0  0  0  0  4           0  0  0
    1.9797    1.1167    0.6447 C   0  0  0  0  0  4           0  0  0
    0.0385   -1.2629    2.9630 C   0  0  0  0  0  4           0  0  0
    4.4821    3.5349    4.7071 C   0  0  0  0  0  4           0  0  0
    3.9829    1.1846    4.8848 C   0  0  0  0  0  4           0  0  0
    4.7677    3.3609    3.2115 C   0  0  0  0  0  4           0  0  0
    4.2649    1.0092    3.3878 C   0  0  0  0  0  4           0  0  0
    4.2721    2.1045    1.2150 C   0  0  0  0  0  4           0  0  0
   -9.7372   -1.6547    2.2634 C   0  0  0  0  0  4           0  0  0
    3.4930    0.9636    0.5563 C   0  0  0  0  0  4           0  0  0
  1 14  1  0     0  0
  1 15  1  0     0  0
  2 16  1  0     0  0
  3 17  1  0     0  0
  3 33  1  0     0  0
  4 18  1  0     0  0
  4 34  1  0     0  0
  5 31  2  0     0  0
  6 32  1  0     0  0
  7 14  2  0     0  0
  7 22  1  0     0  0
  8 19  1  0     0  0
  8 20  2  0     0  0
  9 19  2  0     0  0
  9 21  1  0     0  0
 10 14  1  0     0  0
 10 20  1  0     0  0
 11 23  1  0     0  0
 11 31  1  0     0  0
 12 32  1  0     0  0
 12 35  1  0     0  0
 12 36  1  0     0  0
 13 37  1  0     0  0
 13 38  1  0     0  0
 13 39  1  0     0  0
 15 22  2  0     0  0
 15 40  1  0     0  0
 16 25  2  0     0  0
 16 26  1  0     0  0
 17 18  2  0     0  0
 17 27  1  0     0  0
 18 28  1  0     0  0
 20 24  1  0     0  0
 21 24  1  0     0  0
 21 27  2  0     0  0
 23 25  1  0     0  0
 23 29  2  0     0  0
 24 28  2  0     0  0
 26 30  2  0     0  0
 29 30  1  0     0  0
 31 40  1  0     0  0
 33 41  1  0     0  0
 35 37  1  0     0  0
 36 38  1  0     0  0
 39 41  1  0     0  0
M  END
> <standard_type>
pIC50

> <# Confs.>
25

> <canonical_smiles>
FC1=CC(NC(CC2=CN=C(NC(C3=C4)=NC=NC3=CC(OCCCN5CCN(CO)CC5)=C4OC)S2)=O)=CC=C1

> <standard_relation>
=

> <Publication_ID>
nan

> <predicted_activity_value>
8.080921907623926

> <actual_activity_value>
8.154901959985743

> <Compound>
2

> <standard_units>
nM

> hash
10397007601345888930

$$$$
2_
XXILIB    08252103493D 0   0.00000     0.00000

 41 45  0     1  0            999 V2000
   -7.2332   -0.4203    2.2023 S   0  0  0  0  0  2           0  0  0
  -14.3587    3.4541    0.3448 F   0  0  0  0  0  1           0  0  0
    1.3665    0.0000   -0.0000 O   0  0  0  0  0  2           0  0  0
   -0.2265    0.0177    2.3956 O   0  0  0  0  0  2           0  0  0
  -11.4107   -2.3597    0.6972 O   0  0  0  0  0  2           0  0  0
    7.7248    1.8449   -6.2022 O   0  0  0  0  0  2           0  0  0
   -6.8922   -1.2910   -0.1929 N   0  0  0  0  0  3           0  0  0
   -4.7413   -0.1329   -1.6762 N   0  0  0  0  0  3           0  0  0
   -2.5341   -0.1745   -2.6127 N   0  0  0  0  0  3           0  0  0
   -5.0858    0.0071    0.6803 N   0  0  0  0  0  3           0  0  0
  -11.4350   -0.1535    1.4289 N   0  0  0  0  0  3           0  0  0
    6.5763    1.4484   -4.0947 N   0  0  2  0  0  3           0  0  0
    4.5054    1.9920   -2.1483 N   0  0  2  0  0  3           0  0  0
   -6.3032   -0.5809    0.7509 C   0  0  0  0  0  4           0  0  0
   -8.4901   -1.3570    1.5128 C   0  0  0  0  0  4           0  0  0
  -14.0132    2.1688    0.1861 C   0  0  0  0  0  4           0  0  0
    0.0000    0.0000    0.0000 C   0  0  0  0  0  4           0  0  0
   -0.7842   -0.0000    1.1485 C   0  0  0  0  0  4           0  0  0
   -3.8723   -0.1927   -2.6948 C   0  0  0  0  0  4           0  0  0
   -4.2160   -0.0351   -0.4296 C   0  0  0  0  0  4           0  0  0
   -2.0092   -0.0989   -1.3832 C   0  0  0  0  0  4           0  0  0
   -8.1294   -1.7265    0.2349 C   0  0  0  0  0  4           0  0  0
  -12.5485    0.3244    0.7133 C   0  0  0  0  0  4           0  0  0
   -2.8125   -0.0368   -0.2252 C   0  0  0  0  0  4           0  0  0
  -12.9113    1.6657    0.8742 C   0  0  0  0  0  4           0  0  0
  -14.7615    1.3604   -0.6631 C   0  0  0  0  0  4           0  0  0
   -0.6223   -0.0813   -1.2484 C   0  0  0  0  0  4           0  0  0
   -2.1764    0.0066    1.0400 C   0  0  0  0  0  4           0  0  0
  -13.2968   -0.4949   -0.1430 C   0  0  0  0  0  4           0  0  0
  -14.3996    0.0254   -0.8273 C   0  0  0  0  0  4           0  0  0
  -10.9476   -1.4478    1.3815 C   0  0  0  0  0  4           0  0  0
    7.8420    1.6546   -4.7940 C   0  0  0  0  0  4           0  0  0
    1.9797    1.1167    0.6447 C   0  0  0  0  0  4           0  0  0
    0.0385   -1.2629    2.9630 C   0  0  0  0  0  4           0  0  0
    5.6677    2.5873   -4.2554 C   0  0  0  0  0  4           0  0  0
    6.7757    1.1461   -2.6743 C   0  0  0  0  0  4           0  0  0
    4.3246    2.3005   -3.5753 C   0  0  0  0  0  4           0  0  0
    5.4333    0.8606   -1.9904 C   0  0  0  0  0  4           0  0  0
    3.2088    1.7258   -1.5173 C   0  0  0  0  0  4           0  0  0
   -9.7372   -1.6547    2.2634 C   0  0  0  0  0  4           0  0  0
    3.3185    1.3961   -0.0268 C   0  0  0  0  0  4           0  0  0
  1 14  1  0     0  0
  1 15  1  0     0  0
  2 16  1  0     0  0
  3 17  1  0     0  0
  3 33  1  0     0  0
  4 18  1  0     0  0
  4 34  1  0     0  0
  5 31  2  0     0  0
  6 32  1  0     0  0
  7 14  2  0     0  0
  7 22  1  0     0  0
  8 19  1  0     0  0
  8 20  2  0     0  0
  9 19  2  0     0  0
  9 21  1  0     0  0
 10 14  1  0     0  0
 10 20  1  0     0  0
 11 23  1  0     0  0
 11 31  1  0     0  0
 12 32  1  0     0  0
 12 35  1  0     0  0
 12 36  1  0     0  0
 13 37  1  0     0  0
 13 38  1  0     0  0
 13 39  1  0     0  0
 15 22  2  0     0  0
 15 40  1  0     0  0
 16 25  2  0     0  0
 16 26  1  0     0  0
 17 18  2  0     0  0
 17 27  1  0     0  0
 18 28  1  0     0  0
 20 24  1  0     0  0
 21 24  1  0     0  0
 21 27  2  0     0  0
 23 25  1  0     0  0
 23 29  2  0     0  0
 24 28  2  0     0  0
 26 30  2  0     0  0
 29 30  1  0     0  0
 31 40  1  0     0  0
 33 41  1  0     0  0
 35 37  1  0     0  0
 36 38  1  0     0  0
 39 41  1  0     0  0
M  END
> <standard_type>
pIC50

> <# Confs.>
25

> <canonical_smiles>
FC1=CC(NC(CC2=CN=C(NC(C3=C4)=NC=NC3=CC(OCCCN5CCN(CO)CC5)=C4OC)S2)=O)=CC=C1

> <standard_relation>
=

> <Publication_ID>
nan

> <predicted_activity_value>
8.080921907623926

> <actual_activity_value>
8.154901959985743

> <Compound>
2

> <standard_units>
nM

> hash
10397007601345888930

$$$$
2_
XXILIB    08252103493D 0   0.00000     0.00000

 41 45  0     1  0            999 V2000
   -7.2332   -0.4203    2.2023 S   0  0  0  0  0  2           0  0  0
  -11.9157    4.6369    4.8730 F   0  0  0  0  0  1           0  0  0
    1.3665   -0.0000   -0.0000 O   0  0  0  0  0  2           0  0  0
   -0.2265    0.0177    2.3956 O   0  0  0  0  0  2           0  0  0
  -11.5799   -0.6700    1.0863 O   0  0  0  0  0  2           0  0  0
    1.2660    7.1436   -4.5553 O   0  0  0  0  0  2           0  0  0
   -6.8922   -1.2910   -0.1929 N   0  0  0  0  0  3           0  0  0
   -4.7413   -0.1329   -1.6762 N   0  0  0  0  0  3           0  0  0
   -2.5341   -0.1745   -2.6127 N   0  0  0  0  0  3           0  0  0
   -5.0858    0.0071    0.6803 N   0  0  0  0  0  3           0  0  0
  -10.6925    0.4674    2.9089 N   0  0  0  0  0  3           0  0  0
    2.0025    5.5783   -2.8449 N   0  0  2  0  0  3           0  0  0
    2.3915    2.9124   -1.7892 N   0  0  2  0  0  3           0  0  0
   -6.3032   -0.5809    0.7509 C   0  0  0  0  0  4           0  0  0
   -8.4901   -1.3570    1.5128 C   0  0  0  0  0  4           0  0  0
  -12.1253    3.7054    3.9323 C   0  0  0  0  0  4           0  0  0
    0.0000    0.0000    0.0000 C   0  0  0  0  0  4           0  0  0
   -0.7842   -0.0000    1.1485 C   0  0  0  0  0  4           0  0  0
   -3.8723   -0.1927   -2.6948 C   0  0  0  0  0  4           0  0  0
   -4.2160   -0.0351   -0.4296 C   0  0  0  0  0  4           0  0  0
   -2.0092   -0.0989   -1.3832 C   0  0  0  0  0  4           0  0  0
   -8.1294   -1.7265    0.2349 C   0  0  0  0  0  4           0  0  0
  -11.5279    1.5999    2.9149 C   0  0  0  0  0  4           0  0  0
   -2.8125   -0.0368   -0.2252 C   0  0  0  0  0  4           0  0  0
  -11.3112    2.5755    3.8936 C   0  0  0  0  0  4           0  0  0
  -13.1524    3.8839    3.0114 C   0  0  0  0  0  4           0  0  0
   -0.6223   -0.0813   -1.2484 C   0  0  0  0  0  4           0  0  0
   -2.1764    0.0066    1.0400 C   0  0  0  0  0  4           0  0  0
  -12.5594    1.7751    1.9823 C   0  0  0  0  0  4           0  0  0
  -13.3673    2.9152    2.0340 C   0  0  0  0  0  4           0  0  0
  -10.7742   -0.5836    2.0124 C   0  0  0  0  0  4           0  0  0
    1.2579    6.7912   -3.1737 C   0  0  0  0  0  4           0  0  0
    1.9797    1.1167    0.6447 C   0  0  0  0  0  4           0  0  0
    0.0385   -1.2629    2.9630 C   0  0  0  0  0  4           0  0  0
    1.4760    4.4033   -3.5455 C   0  0  0  0  0  4           0  0  0
    2.0500    5.3369   -1.3999 C   0  0  0  0  0  4           0  0  0
    2.3301    3.1688   -3.2365 C   0  0  0  0  0  4           0  0  0
    2.9022    4.1011   -1.0876 C   0  0  0  0  0  4           0  0  0
    3.2088    1.7258   -1.5173 C   0  0  0  0  0  4           0  0  0
   -9.7372   -1.6547    2.2634 C   0  0  0  0  0  4           0  0  0
    3.3185    1.3961   -0.0268 C   0  0  0  0  0  4           0  0  0
  1 14  1  0     0  0
  1 15  1  0     0  0
  2 16  1  0     0  0
  3 17  1  0     0  0
  3 33  1  0     0  0
  4 18  1  0     0  0
  4 34  1  0     0  0
  5 31  2  0     0  0
  6 32  1  0     0  0
  7 14  2  0     0  0
  7 22  1  0     0  0
  8 19  1  0     0  0
  8 20  2  0     0  0
  9 19  2  0     0  0
  9 21  1  0     0  0
 10 14  1  0     0  0
 10 20  1  0     0  0
 11 23  1  0     0  0
 11 31  1  0     0  0
 12 32  1  0     0  0
 12 35  1  0     0  0
 12 36  1  0     0  0
 13 37  1  0     0  0
 13 38  1  0     0  0
 13 39  1  0     0  0
 15 22  2  0     0  0
 15 40  1  0     0  0
 16 25  2  0     0  0
 16 26  1  0     0  0
 17 18  2  0     0  0
 17 27  1  0     0  0
 18 28  1  0     0  0
 20 24  1  0     0  0
 21 24  1  0     0  0
 21 27  2  0     0  0
 23 25  1  0     0  0
 23 29  2  0     0  0
 24 28  2  0     0  0
 26 30  2  0     0  0
 29 30  1  0     0  0
 31 40  1  0     0  0
 33 41  1  0     0  0
 35 37  1  0     0  0
 36 38  1  0     0  0
 39 41  1  0     0  0
M  END
> <standard_type>
pIC50

> <# Confs.>
25

> <canonical_smiles>
FC1=CC(NC(CC2=CN=C(NC(C3=C4)=NC=NC3=CC(OCCCN5CCN(CO)CC5)=C4OC)S2)=O)=CC=C1

> <standard_relation>
=

> <Publication_ID>
nan

> <predicted_activity_value>
8.080921907623926

> <actual_activity_value>
8.154901959985743

> <Compound>
2

> <standard_units>
nM

> hash
10397007601345888930

$$$$
2_
XXILIB    08252103493D 0   0.00000     0.00000

 41 45  0     1  0            999 V2000
   -7.2332   -0.4203    2.2023 S   0  0  0  0  0  2           0  0  0
  -14.3587    3.4541    0.3448 F   0  0  0  0  0  1           0  0  0
    1.3665   -0.0000    0.0000 O   0  0  0  0  0  2           0  0  0
   -0.2265    0.0177    2.3956 O   0  0  0  0  0  2           0  0  0
  -11.4107   -2.3597    0.6972 O   0  0  0  0  0  2           0  0  0
    2.1641    8.2987   -1.8649 O   0  0  0  0  0  2           0  0  0
   -6.8922   -1.2910   -0.1929 N   0  0  0  0  0  3           0  0  0
   -4.7413   -0.1329   -1.6762 N   0  0  0  0  0  3           0  0  0
   -2.5341   -0.1745   -2.6127 N   0  0  0  0  0  3           0  0  0
   -5.0858    0.0071    0.6803 N   0  0  0  0  0  3           0  0  0
  -11.4350   -0.1535    1.4289 N   0  0  0  0  0  3           0  0  0
    3.0318    6.5860   -0.3711 N   0  0  2  0  0  3           0  0  0
    3.3440    3.8435    0.4972 N   0  0  2  0  0  3           0  0  0
   -6.3032   -0.5809    0.7509 C   0  0  0  0  0  4           0  0  0
   -8.4901   -1.3570    1.5128 C   0  0  0  0  0  4           0  0  0
  -14.0132    2.1688    0.1861 C   0  0  0  0  0  4           0  0  0
    0.0000    0.0000    0.0000 C   0  0  0  0  0  4           0  0  0
   -0.7842   -0.0000    1.1485 C   0  0  0  0  0  4           0  0  0
   -3.8723   -0.1927   -2.6948 C   0  0  0  0  0  4           0  0  0
   -4.2160   -0.0351   -0.4296 C   0  0  0  0  0  4           0  0  0
   -2.0092   -0.0989   -1.3832 C   0  0  0  0  0  4           0  0  0
   -8.1294   -1.7265    0.2349 C   0  0  0  0  0  4           0  0  0
  -12.5485    0.3244    0.7133 C   0  0  0  0  0  4           0  0  0
   -2.8125   -0.0368   -0.2252 C   0  0  0  0  0  4           0  0  0
  -12.9113    1.6657    0.8742 C   0  0  0  0  0  4           0  0  0
  -14.7615    1.3604   -0.6631 C   0  0  0  0  0  4           0  0  0
   -0.6223   -0.0813   -1.2484 C   0  0  0  0  0  4           0  0  0
   -2.1764    0.0066    1.0400 C   0  0  0  0  0  4           0  0  0
  -13.2968   -0.4949   -0.1430 C   0  0  0  0  0  4           0  0  0
  -14.3996    0.0254   -0.8273 C   0  0  0  0  0  4           0  0  0
  -10.9476   -1.4478    1.3815 C   0  0  0  0  0  4           0  0  0
    2.3590    7.8742   -0.5178 C   0  0  0  0  0  4           0  0  0
    1.9797    1.1167    0.6447 C   0  0  0  0  0  4           0  0  0
    0.0385   -1.2629    2.9630 C   0  0  0  0  0  4           0  0  0
    2.2858    5.4999   -1.0133 C   0  0  0  0  0  4           0  0  0
    3.3025    6.2637    1.0331 C   0  0  0  0  0  4           0  0  0
    3.0607    4.1820   -0.9061 C   0  0  0  0  0  4           0  0  0
    4.0760    4.9444    1.1438 C   0  0  0  0  0  4           0  0  0
    4.0809    2.5783    0.5762 C   0  0  0  0  0  4           0  0  0
   -9.7372   -1.6547    2.2634 C   0  0  0  0  0  4           0  0  0
    3.3185    1.3961   -0.0268 C   0  0  0  0  0  4           0  0  0
  1 14  1  0     0  0
  1 15  1  0     0  0
  2 16  1  0     0  0
  3 17  1  0     0  0
  3 33  1  0     0  0
  4 18  1  0     0  0
  4 34  1  0     0  0
  5 31  2  0     0  0
  6 32  1  0     0  0
  7 14  2  0     0  0
  7 22  1  0     0  0
  8 19  1  0     0  0
  8 20  2  0     0  0
  9 19  2  0     0  0
  9 21  1  0     0  0
 10 14  1  0     0  0
 10 20  1  0     0  0
 11 23  1  0     0  0
 11 31  1  0     0  0
 12 32  1  0     0  0
 12 35  1  0     0  0
 12 36  1  0     0  0
 13 37  1  0     0  0
 13 38  1  0     0  0
 13 39  1  0     0  0
 15 22  2  0     0  0
 15 40  1  0     0  0
 16 25  2  0     0  0
 16 26  1  0     0  0
 17 18  2  0     0  0
 17 27  1  0     0  0
 18 28  1  0     0  0
 20 24  1  0     0  0
 21 24  1  0     0  0
 21 27  2  0     0  0
 23 25  1  0     0  0
 23 29  2  0     0  0
 24 28  2  0     0  0
 26 30  2  0     0  0
 29 30  1  0     0  0
 31 40  1  0     0  0
 33 41  1  0     0  0
 35 37  1  0     0  0
 36 38  1  0     0  0
 39 41  1  0     0  0
M  END
> <standard_type>
pIC50

> <# Confs.>
25

> <canonical_smiles>
FC1=CC(NC(CC2=CN=C(NC(C3=C4)=NC=NC3=CC(OCCCN5CCN(CO)CC5)=C4OC)S2)=O)=CC=C1

> <standard_relation>
=

> <Publication_ID>
nan

> <predicted_activity_value>
8.080921907623926

> <actual_activity_value>
8.154901959985743

> <Compound>
2

> <standard_units>
nM

> hash
10397007601345888930

$$$$
2_
XXILIB    08252103493D 0   0.00000     0.00000

 41 45  0     1  0            999 V2000
   -7.2332   -0.4203    2.2023 S   0  0  0  0  0  2           0  0  0
  -11.9157    4.6369    4.8730 F   0  0  0  0  0  1           0  0  0
    1.3665   -0.0000   -0.0000 O   0  0  0  0  0  2           0  0  0
   -0.2265    0.0177    2.3956 O   0  0  0  0  0  2           0  0  0
  -11.5799   -0.6700    1.0863 O   0  0  0  0  0  2           0  0  0
    5.4025    3.4340    7.4849 O   0  0  0  0  0  2           0  0  0
   -6.8922   -1.2910   -0.1929 N   0  0  0  0  0  3           0  0  0
   -4.7413   -0.1329   -1.6762 N   0  0  0  0  0  3           0  0  0
   -2.5341   -0.1745   -2.6127 N   0  0  0  0  0  3           0  0  0
   -5.0858    0.0071    0.6803 N   0  0  0  0  0  3           0  0  0
  -10.6925    0.4674    2.9089 N   0  0  0  0  0  3           0  0  0
    4.7708    2.2935    5.4311 N   0  0  2  0  0  3           0  0  0
    3.9871    2.2497    2.6460 N   0  0  2  0  0  3           0  0  0
   -6.3032   -0.5809    0.7509 C   0  0  0  0  0  4           0  0  0
   -8.4901   -1.3570    1.5128 C   0  0  0  0  0  4           0  0  0
  -12.1253    3.7054    3.9323 C   0  0  0  0  0  4           0  0  0
    0.0000    0.0000    0.0000 C   0  0  0  0  0  4           0  0  0
   -0.7842   -0.0000    1.1485 C   0  0  0  0  0  4           0  0  0
   -3.8723   -0.1927   -2.6948 C   0  0  0  0  0  4           0  0  0
   -4.2160   -0.0351   -0.4296 C   0  0  0  0  0  4           0  0  0
   -2.0092   -0.0989   -1.3832 C   0  0  0  0  0  4           0  0  0
   -8.1294   -1.7265    0.2349 C   0  0  0  0  0  4           0  0  0
  -11.5279    1.5999    2.9149 C   0  0  0  0  0  4           0  0  0
   -2.8125   -0.0368   -0.2252 C   0  0  0  0  0  4           0  0  0
  -11.3112    2.5755    3.8936 C   0  0  0  0  0  4           0  0  0
  -13.1524    3.8839    3.0114 C   0  0  0  0  0  4           0  0  0
   -0.6223   -0.0813   -1.2484 C   0  0  0  0  0  4           0  0  0
   -2.1764    0.0066    1.0400 C   0  0  0  0  0  4           0  0  0
  -12.5594    1.7751    1.9823 C   0  0  0  0  0  4           0  0  0
  -13.3673    2.9152    2.0340 C   0  0  0  0  0  4           0  0  0
  -10.7742   -0.5836    2.0124 C   0  0  0  0  0  4           0  0  0
    4.5811    2.4428    6.8717 C   0  0  0  0  0  4           0  0  0
    1.9797    1.1167    0.6447 C   0  0  0  0  0  4           0  0  0
    0.0385   -1.2629    2.9630 C   0  0  0  0  0  4           0  0  0
    4.4821    3.5349    4.7071 C   0  0  0  0  0  4           0  0  0
    3.9829    1.1846    4.8848 C   0  0  0  0  0  4           0  0  0
    4.7677    3.3609    3.2115 C   0  0  0  0  0  4           0  0  0
    4.2649    1.0092    3.3878 C   0  0  0  0  0  4           0  0  0
    4.2721    2.1045    1.2150 C   0  0  0  0  0  4           0  0  0
   -9.7372   -1.6547    2.2634 C   0  0  0  0  0  4           0  0  0
    3.4930    0.9636    0.5563 C   0  0  0  0  0  4           0  0  0
  1 14  1  0     0  0
  1 15  1  0     0  0
  2 16  1  0     0  0
  3 17  1  0     0  0
  3 33  1  0     0  0
  4 18  1  0     0  0
  4 34  1  0     0  0
  5 31  2  0     0  0
  6 32  1  0     0  0
  7 14  2  0     0  0
  7 22  1  0     0  0
  8 19  1  0     0  0
  8 20  2  0     0  0
  9 19  2  0     0  0
  9 21  1  0     0  0
 10 14  1  0     0  0
 10 20  1  0     0  0
 11 23  1  0     0  0
 11 31  1  0     0  0
 12 32  1  0     0  0
 12 35  1  0     0  0
 12 36  1  0     0  0
 13 37  1  0     0  0
 13 38  1  0     0  0
 13 39  1  0     0  0
 15 22  2  0     0  0
 15 40  1  0     0  0
 16 25  2  0     0  0
 16 26  1  0     0  0
 17 18  2  0     0  0
 17 27  1  0     0  0
 18 28  1  0     0  0
 20 24  1  0     0  0
 21 24  1  0     0  0
 21 27  2  0     0  0
 23 25  1  0     0  0
 23 29  2  0     0  0
 24 28  2  0     0  0
 26 30  2  0     0  0
 29 30  1  0     0  0
 31 40  1  0     0  0
 33 41  1  0     0  0
 35 37  1  0     0  0
 36 38  1  0     0  0
 39 41  1  0     0  0
M  END
> <standard_type>
pIC50

> <# Confs.>
25

> <canonical_smiles>
FC1=CC(NC(CC2=CN=C(NC(C3=C4)=NC=NC3=CC(OCCCN5CCN(CO)CC5)=C4OC)S2)=O)=CC=C1

> <standard_relation>
=

> <Publication_ID>
nan

> <predicted_activity_value>
8.080921907623926

> <actual_activity_value>
8.154901959985743

> <Compound>
2

> <standard_units>
nM

> hash
10397007601345888930

$$$$
2_
XXILIB    08252103493D 0   0.00000     0.00000

 41 45  0     1  0            999 V2000
   -7.2332   -0.4203    2.2023 S   0  0  0  0  0  2           0  0  0
  -11.9157    4.6369    4.8730 F   0  0  0  0  0  1           0  0  0
    1.3665    0.0000   -0.0000 O   0  0  0  0  0  2           0  0  0
   -0.2265    0.0177    2.3956 O   0  0  0  0  0  2           0  0  0
  -11.5799   -0.6700    1.0863 O   0  0  0  0  0  2           0  0  0
    7.7248    1.8449   -6.2022 O   0  0  0  0  0  2           0  0  0
   -6.8922   -1.2910   -0.1929 N   0  0  0  0  0  3           0  0  0
   -4.7413   -0.1329   -1.6762 N   0  0  0  0  0  3           0  0  0
   -2.5341   -0.1745   -2.6127 N   0  0  0  0  0  3           0  0  0
   -5.0858    0.0071    0.6803 N   0  0  0  0  0  3           0  0  0
  -10.6925    0.4674    2.9089 N   0  0  0  0  0  3           0  0  0
    6.5763    1.4484   -4.0947 N   0  0  2  0  0  3           0  0  0
    4.5054    1.9920   -2.1483 N   0  0  2  0  0  3           0  0  0
   -6.3032   -0.5809    0.7509 C   0  0  0  0  0  4           0  0  0
   -8.4901   -1.3570    1.5128 C   0  0  0  0  0  4           0  0  0
  -12.1253    3.7054    3.9323 C   0  0  0  0  0  4           0  0  0
    0.0000    0.0000    0.0000 C   0  0  0  0  0  4           0  0  0
   -0.7842   -0.0000    1.1485 C   0  0  0  0  0  4           0  0  0
   -3.8723   -0.1927   -2.6948 C   0  0  0  0  0  4           0  0  0
   -4.2160   -0.0351   -0.4296 C   0  0  0  0  0  4           0  0  0
   -2.0092   -0.0989   -1.3832 C   0  0  0  0  0  4           0  0  0
   -8.1294   -1.7265    0.2349 C   0  0  0  0  0  4           0  0  0
  -11.5279    1.5999    2.9149 C   0  0  0  0  0  4           0  0  0
   -2.8125   -0.0368   -0.2252 C   0  0  0  0  0  4           0  0  0
  -11.3112    2.5755    3.8936 C   0  0  0  0  0  4           0  0  0
  -13.1524    3.8839    3.0114 C   0  0  0  0  0  4           0  0  0
   -0.6223   -0.0813   -1.2484 C   0  0  0  0  0  4           0  0  0
   -2.1764    0.0066    1.0400 C   0  0  0  0  0  4           0  0  0
  -12.5594    1.7751    1.9823 C   0  0  0  0  0  4           0  0  0
  -13.3673    2.9152    2.0340 C   0  0  0  0  0  4           0  0  0
  -10.7742   -0.5836    2.0124 C   0  0  0  0  0  4           0  0  0
    7.8420    1.6546   -4.7940 C   0  0  0  0  0  4           0  0  0
    1.9797    1.1167    0.6447 C   0  0  0  0  0  4           0  0  0
    0.0385   -1.2629    2.9630 C   0  0  0  0  0  4           0  0  0
    5.6677    2.5873   -4.2554 C   0  0  0  0  0  4           0  0  0
    6.7757    1.1461   -2.6743 C   0  0  0  0  0  4           0  0  0
    4.3246    2.3005   -3.5753 C   0  0  0  0  0  4           0  0  0
    5.4333    0.8606   -1.9904 C   0  0  0  0  0  4           0  0  0
    3.2088    1.7258   -1.5173 C   0  0  0  0  0  4           0  0  0
   -9.7372   -1.6547    2.2634 C   0  0  0  0  0  4           0  0  0
    3.3185    1.3961   -0.0268 C   0  0  0  0  0  4           0  0  0
  1 14  1  0     0  0
  1 15  1  0     0  0
  2 16  1  0     0  0
  3 17  1  0     0  0
  3 33  1  0     0  0
  4 18  1  0     0  0
  4 34  1  0     0  0
  5 31  2  0     0  0
  6 32  1  0     0  0
  7 14  2  0     0  0
  7 22  1  0     0  0
  8 19  1  0     0  0
  8 20  2  0     0  0
  9 19  2  0     0  0
  9 21  1  0     0  0
 10 14  1  0     0  0
 10 20  1  0     0  0
 11 23  1  0     0  0
 11 31  1  0     0  0
 12 32  1  0     0  0
 12 35  1  0     0  0
 12 36  1  0     0  0
 13 37  1  0     0  0
 13 38  1  0     0  0
 13 39  1  0     0  0
 15 22  2  0     0  0
 15 40  1  0     0  0
 16 25  2  0     0  0
 16 26  1  0     0  0
 17 18  2  0     0  0
 17 27  1  0     0  0
 18 28  1  0     0  0
 20 24  1  0     0  0
 21 24  1  0     0  0
 21 27  2  0     0  0
 23 25  1  0     0  0
 23 29  2  0     0  0
 24 28  2  0     0  0
 26 30  2  0     0  0
 29 30  1  0     0  0
 31 40  1  0     0  0
 33 41  1  0     0  0
 35 37  1  0     0  0
 36 38  1  0     0  0
 39 41  1  0     0  0
M  END
> <standard_type>
pIC50

> <# Confs.>
25

> <canonical_smiles>
FC1=CC(NC(CC2=CN=C(NC(C3=C4)=NC=NC3=CC(OCCCN5CCN(CO)CC5)=C4OC)S2)=O)=CC=C1

> <standard_relation>
=

> <Publication_ID>
nan

> <predicted_activity_value>
8.080921907623926

> <actual_activity_value>
8.154901959985743

> <Compound>
2

> <standard_units>
nM

> hash
10397007601345888930

$$$$
2_
XXILIB    08252103493D 0   0.00000     0.00000

 41 45  0     1  0            999 V2000
   -7.2332   -0.4203    2.2023 S   0  0  0  0  0  2           0  0  0
   -7.6621   -3.9741    8.7019 F   0  0  0  0  0  1           0  0  0
    1.3665   -0.0000   -0.0000 O   0  0  0  0  0  2           0  0  0
   -0.2265    0.0177    2.3956 O   0  0  0  0  0  2           0  0  0
   -9.8880   -4.0289    2.5653 O   0  0  0  0  0  2           0  0  0
    1.2660    7.1436   -4.5553 O   0  0  0  0  0  2           0  0  0
   -6.8922   -1.2910   -0.1929 N   0  0  0  0  0  3           0  0  0
   -4.7413   -0.1329   -1.6762 N   0  0  0  0  0  3           0  0  0
   -2.5341   -0.1745   -2.6127 N   0  0  0  0  0  3           0  0  0
   -5.0858    0.0071    0.6803 N   0  0  0  0  0  3           0  0  0
   -9.1087   -2.7332    4.3308 N   0  0  0  0  0  3           0  0  0
    2.0025    5.5783   -2.8449 N   0  0  2  0  0  3           0  0  0
    2.3915    2.9124   -1.7892 N   0  0  2  0  0  3           0  0  0
   -6.3032   -0.5809    0.7509 C   0  0  0  0  0  4           0  0  0
   -8.4901   -1.3570    1.5128 C   0  0  0  0  0  4           0  0  0
   -8.1318   -4.3397    7.5010 C   0  0  0  0  0  4           0  0  0
    0.0000    0.0000    0.0000 C   0  0  0  0  0  4           0  0  0
   -0.7842   -0.0000    1.1485 C   0  0  0  0  0  4           0  0  0
   -3.8723   -0.1927   -2.6948 C   0  0  0  0  0  4           0  0  0
   -4.2160   -0.0351   -0.4296 C   0  0  0  0  0  4           0  0  0
   -2.0092   -0.0989   -1.3832 C   0  0  0  0  0  4           0  0  0
   -8.1294   -1.7265    0.2349 C   0  0  0  0  0  4           0  0  0
   -8.8721   -3.7422    5.2828 C   0  0  0  0  0  4           0  0  0
   -2.8125   -0.0368   -0.2252 C   0  0  0  0  0  4           0  0  0
   -8.3840   -3.3649    6.5382 C   0  0  0  0  0  4           0  0  0
   -8.3589   -5.6865    7.2377 C   0  0  0  0  0  4           0  0  0
   -0.6223   -0.0813   -1.2484 C   0  0  0  0  0  4           0  0  0
   -2.1764    0.0066    1.0400 C   0  0  0  0  0  4           0  0  0
   -9.1056   -5.0974    5.0121 C   0  0  0  0  0  4           0  0  0
   -8.8482   -6.0638    5.9894 C   0  0  0  0  0  4           0  0  0
   -9.5884   -2.9377    3.0490 C   0  0  0  0  0  4           0  0  0
    1.2579    6.7912   -3.1737 C   0  0  0  0  0  4           0  0  0
    1.9797    1.1167    0.6447 C   0  0  0  0  0  4           0  0  0
    0.0385   -1.2629    2.9630 C   0  0  0  0  0  4           0  0  0
    1.4760    4.4033   -3.5455 C   0  0  0  0  0  4           0  0  0
    2.0500    5.3369   -1.3999 C   0  0  0  0  0  4           0  0  0
    2.3301    3.1688   -3.2365 C   0  0  0  0  0  4           0  0  0
    2.9022    4.1011   -1.0876 C   0  0  0  0  0  4           0  0  0
    3.2088    1.7258   -1.5173 C   0  0  0  0  0  4           0  0  0
   -9.7372   -1.6547    2.2634 C   0  0  0  0  0  4           0  0  0
    3.3185    1.3961   -0.0268 C   0  0  0  0  0  4           0  0  0
  1 14  1  0     0  0
  1 15  1  0     0  0
  2 16  1  0     0  0
  3 17  1  0     0  0
  3 33  1  0     0  0
  4 18  1  0     0  0
  4 34  1  0     0  0
  5 31  2  0     0  0
  6 32  1  0     0  0
  7 14  2  0     0  0
  7 22  1  0     0  0
  8 19  1  0     0  0
  8 20  2  0     0  0
  9 19  2  0     0  0
  9 21  1  0     0  0
 10 14  1  0     0  0
 10 20  1  0     0  0
 11 23  1  0     0  0
 11 31  1  0     0  0
 12 32  1  0     0  0
 12 35  1  0     0  0
 12 36  1  0     0  0
 13 37  1  0     0  0
 13 38  1  0     0  0
 13 39  1  0     0  0
 15 22  2  0     0  0
 15 40  1  0     0  0
 16 25  2  0     0  0
 16 26  1  0     0  0
 17 18  2  0     0  0
 17 27  1  0     0  0
 18 28  1  0     0  0
 20 24  1  0     0  0
 21 24  1  0     0  0
 21 27  2  0     0  0
 23 25  1  0     0  0
 23 29  2  0     0  0
 24 28  2  0     0  0
 26 30  2  0     0  0
 29 30  1  0     0  0
 31 40  1  0     0  0
 33 41  1  0     0  0
 35 37  1  0     0  0
 36 38  1  0     0  0
 39 41  1  0     0  0
M  END
> <standard_type>
pIC50

> <# Confs.>
25

> <canonical_smiles>
FC1=CC(NC(CC2=CN=C(NC(C3=C4)=NC=NC3=CC(OCCCN5CCN(CO)CC5)=C4OC)S2)=O)=CC=C1

> <standard_relation>
=

> <Publication_ID>
nan

> <predicted_activity_value>
8.080921907623926

> <actual_activity_value>
8.154901959985743

> <Compound>
2

> <standard_units>
nM

> hash
10397007601345888930

$$$$
2_
XXILIB    08252103493D 0   0.00000     0.00000

 41 45  0     1  0            999 V2000
   -7.2332   -0.4203    2.2023 S   0  0  0  0  0  2           0  0  0
   -7.6621   -3.9741    8.7019 F   0  0  0  0  0  1           0  0  0
    1.3665   -0.0000   -0.0000 O   0  0  0  0  0  2           0  0  0
   -0.2265    0.0177    2.3956 O   0  0  0  0  0  2           0  0  0
   -9.8880   -4.0289    2.5653 O   0  0  0  0  0  2           0  0  0
    5.4025    3.4340    7.4849 O   0  0  0  0  0  2           0  0  0
   -6.8922   -1.2910   -0.1929 N   0  0  0  0  0  3           0  0  0
   -4.7413   -0.1329   -1.6762 N   0  0  0  0  0  3           0  0  0
   -2.5341   -0.1745   -2.6127 N   0  0  0  0  0  3           0  0  0
   -5.0858    0.0071    0.6803 N   0  0  0  0  0  3           0  0  0
   -9.1087   -2.7332    4.3308 N   0  0  0  0  0  3           0  0  0
    4.7708    2.2935    5.4311 N   0  0  2  0  0  3           0  0  0
    3.9871    2.2497    2.6460 N   0  0  2  0  0  3           0  0  0
   -6.3032   -0.5809    0.7509 C   0  0  0  0  0  4           0  0  0
   -8.4901   -1.3570    1.5128 C   0  0  0  0  0  4           0  0  0
   -8.1318   -4.3397    7.5010 C   0  0  0  0  0  4           0  0  0
    0.0000    0.0000    0.0000 C   0  0  0  0  0  4           0  0  0
   -0.7842   -0.0000    1.1485 C   0  0  0  0  0  4           0  0  0
   -3.8723   -0.1927   -2.6948 C   0  0  0  0  0  4           0  0  0
   -4.2160   -0.0351   -0.4296 C   0  0  0  0  0  4           0  0  0
   -2.0092   -0.0989   -1.3832 C   0  0  0  0  0  4           0  0  0
   -8.1294   -1.7265    0.2349 C   0  0  0  0  0  4           0  0  0
   -8.8721   -3.7422    5.2828 C   0  0  0  0  0  4           0  0  0
   -2.8125   -0.0368   -0.2252 C   0  0  0  0  0  4           0  0  0
   -8.3840   -3.3649    6.5382 C   0  0  0  0  0  4           0  0  0
   -8.3589   -5.6865    7.2377 C   0  0  0  0  0  4           0  0  0
   -0.6223   -0.0813   -1.2484 C   0  0  0  0  0  4           0  0  0
   -2.1764    0.0066    1.0400 C   0  0  0  0  0  4           0  0  0
   -9.1056   -5.0974    5.0121 C   0  0  0  0  0  4           0  0  0
   -8.8482   -6.0638    5.9894 C   0  0  0  0  0  4           0  0  0
   -9.5884   -2.9377    3.0490 C   0  0  0  0  0  4           0  0  0
    4.5811    2.4428    6.8717 C   0  0  0  0  0  4           0  0  0
    1.9797    1.1167    0.6447 C   0  0  0  0  0  4           0  0  0
    0.0385   -1.2629    2.9630 C   0  0  0  0  0  4           0  0  0
    4.4821    3.5349    4.7071 C   0  0  0  0  0  4           0  0  0
    3.9829    1.1846    4.8848 C   0  0  0  0  0  4           0  0  0
    4.7677    3.3609    3.2115 C   0  0  0  0  0  4           0  0  0
    4.2649    1.0092    3.3878 C   0  0  0  0  0  4           0  0  0
    4.2721    2.1045    1.2150 C   0  0  0  0  0  4           0  0  0
   -9.7372   -1.6547    2.2634 C   0  0  0  0  0  4           0  0  0
    3.4930    0.9636    0.5563 C   0  0  0  0  0  4           0  0  0
  1 14  1  0     0  0
  1 15  1  0     0  0
  2 16  1  0     0  0
  3 17  1  0     0  0
  3 33  1  0     0  0
  4 18  1  0     0  0
  4 34  1  0     0  0
  5 31  2  0     0  0
  6 32  1  0     0  0
  7 14  2  0     0  0
  7 22  1  0     0  0
  8 19  1  0     0  0
  8 20  2  0     0  0
  9 19  2  0     0  0
  9 21  1  0     0  0
 10 14  1  0     0  0
 10 20  1  0     0  0
 11 23  1  0     0  0
 11 31  1  0     0  0
 12 32  1  0     0  0
 12 35  1  0     0  0
 12 36  1  0     0  0
 13 37  1  0     0  0
 13 38  1  0     0  0
 13 39  1  0     0  0
 15 22  2  0     0  0
 15 40  1  0     0  0
 16 25  2  0     0  0
 16 26  1  0     0  0
 17 18  2  0     0  0
 17 27  1  0     0  0
 18 28  1  0     0  0
 20 24  1  0     0  0
 21 24  1  0     0  0
 21 27  2  0     0  0
 23 25  1  0     0  0
 23 29  2  0     0  0
 24 28  2  0     0  0
 26 30  2  0     0  0
 29 30  1  0     0  0
 31 40  1  0     0  0
 33 41  1  0     0  0
 35 37  1  0     0  0
 36 38  1  0     0  0
 39 41  1  0     0  0
M  END
> <standard_type>
pIC50

> <# Confs.>
25

> <canonical_smiles>
FC1=CC(NC(CC2=CN=C(NC(C3=C4)=NC=NC3=CC(OCCCN5CCN(CO)CC5)=C4OC)S2)=O)=CC=C1

> <standard_relation>
=

> <Publication_ID>
nan

> <predicted_activity_value>
8.080921907623926

> <actual_activity_value>
8.154901959985743

> <Compound>
2

> <standard_units>
nM

> hash
10397007601345888930

$$$$
2_
XXILIB    08252103493D 0   0.00000     0.00000

 41 45  0     1  0            999 V2000
   -7.2332   -0.4203    2.2023 S   0  0  0  0  0  2           0  0  0
  -11.9157    4.6369    4.8730 F   0  0  0  0  0  1           0  0  0
    1.3665   -0.0000    0.0000 O   0  0  0  0  0  2           0  0  0
   -0.2265    0.0177    2.3956 O   0  0  0  0  0  2           0  0  0
  -11.5799   -0.6700    1.0863 O   0  0  0  0  0  2           0  0  0
    2.1641    8.2987   -1.8649 O   0  0  0  0  0  2           0  0  0
   -6.8922   -1.2910   -0.1929 N   0  0  0  0  0  3           0  0  0
   -4.7413   -0.1329   -1.6762 N   0  0  0  0  0  3           0  0  0
   -2.5341   -0.1745   -2.6127 N   0  0  0  0  0  3           0  0  0
   -5.0858    0.0071    0.6803 N   0  0  0  0  0  3           0  0  0
  -10.6925    0.4674    2.9089 N   0  0  0  0  0  3           0  0  0
    3.0318    6.5860   -0.3711 N   0  0  2  0  0  3           0  0  0
    3.3440    3.8435    0.4972 N   0  0  2  0  0  3           0  0  0
   -6.3032   -0.5809    0.7509 C   0  0  0  0  0  4           0  0  0
   -8.4901   -1.3570    1.5128 C   0  0  0  0  0  4           0  0  0
  -12.1253    3.7054    3.9323 C   0  0  0  0  0  4           0  0  0
    0.0000    0.0000    0.0000 C   0  0  0  0  0  4           0  0  0
   -0.7842   -0.0000    1.1485 C   0  0  0  0  0  4           0  0  0
   -3.8723   -0.1927   -2.6948 C   0  0  0  0  0  4           0  0  0
   -4.2160   -0.0351   -0.4296 C   0  0  0  0  0  4           0  0  0
   -2.0092   -0.0989   -1.3832 C   0  0  0  0  0  4           0  0  0
   -8.1294   -1.7265    0.2349 C   0  0  0  0  0  4           0  0  0
  -11.5279    1.5999    2.9149 C   0  0  0  0  0  4           0  0  0
   -2.8125   -0.0368   -0.2252 C   0  0  0  0  0  4           0  0  0
  -11.3112    2.5755    3.8936 C   0  0  0  0  0  4           0  0  0
  -13.1524    3.8839    3.0114 C   0  0  0  0  0  4           0  0  0
   -0.6223   -0.0813   -1.2484 C   0  0  0  0  0  4           0  0  0
   -2.1764    0.0066    1.0400 C   0  0  0  0  0  4           0  0  0
  -12.5594    1.7751    1.9823 C   0  0  0  0  0  4           0  0  0
  -13.3673    2.9152    2.0340 C   0  0  0  0  0  4           0  0  0
  -10.7742   -0.5836    2.0124 C   0  0  0  0  0  4           0  0  0
    2.3590    7.8742   -0.5178 C   0  0  0  0  0  4           0  0  0
    1.9797    1.1167    0.6447 C   0  0  0  0  0  4           0  0  0
    0.0385   -1.2629    2.9630 C   0  0  0  0  0  4           0  0  0
    2.2858    5.4999   -1.0133 C   0  0  0  0  0  4           0  0  0
    3.3025    6.2637    1.0331 C   0  0  0  0  0  4           0  0  0
    3.0607    4.1820   -0.9061 C   0  0  0  0  0  4           0  0  0
    4.0760    4.9444    1.1438 C   0  0  0  0  0  4           0  0  0
    4.0809    2.5783    0.5762 C   0  0  0  0  0  4           0  0  0
   -9.7372   -1.6547    2.2634 C   0  0  0  0  0  4           0  0  0
    3.3185    1.3961   -0.0268 C   0  0  0  0  0  4           0  0  0
  1 14  1  0     0  0
  1 15  1  0     0  0
  2 16  1  0     0  0
  3 17  1  0     0  0
  3 33  1  0     0  0
  4 18  1  0     0  0
  4 34  1  0     0  0
  5 31  2  0     0  0
  6 32  1  0     0  0
  7 14  2  0     0  0
  7 22  1  0     0  0
  8 19  1  0     0  0
  8 20  2  0     0  0
  9 19  2  0     0  0
  9 21  1  0     0  0
 10 14  1  0     0  0
 10 20  1  0     0  0
 11 23  1  0     0  0
 11 31  1  0     0  0
 12 32  1  0     0  0
 12 35  1  0     0  0
 12 36  1  0     0  0
 13 37  1  0     0  0
 13 38  1  0     0  0
 13 39  1  0     0  0
 15 22  2  0     0  0
 15 40  1  0     0  0
 16 25  2  0     0  0
 16 26  1  0     0  0
 17 18  2  0     0  0
 17 27  1  0     0  0
 18 28  1  0     0  0
 20 24  1  0     0  0
 21 24  1  0     0  0
 21 27  2  0     0  0
 23 25  1  0     0  0
 23 29  2  0     0  0
 24 28  2  0     0  0
 26 30  2  0     0  0
 29 30  1  0     0  0
 31 40  1  0     0  0
 33 41  1  0     0  0
 35 37  1  0     0  0
 36 38  1  0     0  0
 39 41  1  0     0  0
M  END
> <standard_type>
pIC50

> <# Confs.>
25

> <canonical_smiles>
FC1=CC(NC(CC2=CN=C(NC(C3=C4)=NC=NC3=CC(OCCCN5CCN(CO)CC5)=C4OC)S2)=O)=CC=C1

> <standard_relation>
=

> <Publication_ID>
nan

> <predicted_activity_value>
8.080921907623926

> <actual_activity_value>
8.154901959985743

> <Compound>
2

> <standard_units>
nM

> hash
10397007601345888930

$$$$
2_
XXILIB    08252103493D 0   0.00000     0.00000

 41 45  0     1  0            999 V2000
   -7.2332   -0.4203    2.2023 S   0  0  0  0  0  2           0  0  0
  -10.7258   -8.7021    1.5600 F   0  0  0  0  0  1           0  0  0
    1.3665    0.0000    0.0000 O   0  0  0  0  0  2           0  0  0
   -0.2265    0.0177    2.3956 O   0  0  0  0  0  2           0  0  0
   -9.1617   -2.9418    4.2033 O   0  0  0  0  0  2           0  0  0
    7.4621    3.0949    6.1131 O   0  0  0  0  0  2           0  0  0
   -6.8922   -1.2910   -0.1929 N   0  0  0  0  0  3           0  0  0
   -4.7413   -0.1329   -1.6762 N   0  0  0  0  0  3           0  0  0
   -2.5341   -0.1745   -2.6127 N   0  0  0  0  0  3           0  0  0
   -5.0858    0.0071    0.6803 N   0  0  0  0  0  3           0  0  0
   -9.9618   -4.0584    2.3281 N   0  0  0  0  0  3           0  0  0
    6.2491    2.1865    4.2101 N   0  0  2  0  0  3           0  0  0
    4.3975    2.3992    1.9966 N   0  0  2  0  0  3           0  0  0
   -6.3032   -0.5809    0.7509 C   0  0  0  0  0  4           0  0  0
   -8.4901   -1.3570    1.5128 C   0  0  0  0  0  4           0  0  0
  -10.3270   -7.7255    2.3869 C   0  0  0  0  0  4           0  0  0
    0.0000    0.0000    0.0000 C   0  0  0  0  0  4           0  0  0
   -0.7842   -0.0000    1.1485 C   0  0  0  0  0  4           0  0  0
   -3.8723   -0.1927   -2.6948 C   0  0  0  0  0  4           0  0  0
   -4.2160   -0.0351   -0.4296 C   0  0  0  0  0  4           0  0  0
   -2.0092   -0.0989   -1.3832 C   0  0  0  0  0  4           0  0  0
   -8.1294   -1.7265    0.2349 C   0  0  0  0  0  4           0  0  0
   -9.9278   -5.3821    2.8044 C   0  0  0  0  0  4           0  0  0
   -2.8125   -0.0368   -0.2252 C   0  0  0  0  0  4           0  0  0
  -10.3410   -6.4047    1.9441 C   0  0  0  0  0  4           0  0  0
   -9.9062   -8.0488    3.6726 C   0  0  0  0  0  4           0  0  0
   -0.6223   -0.0813   -1.2484 C   0  0  0  0  0  4           0  0  0
   -2.1764    0.0066    1.0400 C   0  0  0  0  0  4           0  0  0
   -9.5001   -5.7014    4.1004 C   0  0  0  0  0  4           0  0  0
   -9.4910   -7.0322    4.5295 C   0  0  0  0  0  4           0  0  0
   -9.5884   -2.9377    3.0490 C   0  0  0  0  0  4           0  0  0
    6.6540    2.0355    5.6054 C   0  0  0  0  0  4           0  0  0
    1.9797    1.1167    0.6447 C   0  0  0  0  0  4           0  0  0
    0.0385   -1.2629    2.9630 C   0  0  0  0  0  4           0  0  0
    5.4656    3.4065    3.9941 C   0  0  0  0  0  4           0  0  0
    5.5200    1.0135    3.7190 C   0  0  0  0  0  4           0  0  0
    5.1278    3.5693    2.5081 C   0  0  0  0  0  4           0  0  0
    5.1786    1.1743    2.2329 C   0  0  0  0  0  4           0  0  0
    4.0809    2.5783    0.5762 C   0  0  0  0  0  4           0  0  0
   -9.7372   -1.6547    2.2634 C   0  0  0  0  0  4           0  0  0
    3.3185    1.3961   -0.0268 C   0  0  0  0  0  4           0  0  0
  1 14  1  0     0  0
  1 15  1  0     0  0
  2 16  1  0     0  0
  3 17  1  0     0  0
  3 33  1  0     0  0
  4 18  1  0     0  0
  4 34  1  0     0  0
  5 31  2  0     0  0
  6 32  1  0     0  0
  7 14  2  0     0  0
  7 22  1  0     0  0
  8 19  1  0     0  0
  8 20  2  0     0  0
  9 19  2  0     0  0
  9 21  1  0     0  0
 10 14  1  0     0  0
 10 20  1  0     0  0
 11 23  1  0     0  0
 11 31  1  0     0  0
 12 32  1  0     0  0
 12 35  1  0     0  0
 12 36  1  0     0  0
 13 37  1  0     0  0
 13 38  1  0     0  0
 13 39  1  0     0  0
 15 22  2  0     0  0
 15 40  1  0     0  0
 16 25  2  0     0  0
 16 26  1  0     0  0
 17 18  2  0     0  0
 17 27  1  0     0  0
 18 28  1  0     0  0
 20 24  1  0     0  0
 21 24  1  0     0  0
 21 27  2  0     0  0
 23 25  1  0     0  0
 23 29  2  0     0  0
 24 28  2  0     0  0
 26 30  2  0     0  0
 29 30  1  0     0  0
 31 40  1  0     0  0
 33 41  1  0     0  0
 35 37  1  0     0  0
 36 38  1  0     0  0
 39 41  1  0     0  0
M  END
> <standard_type>
pIC50

> <# Confs.>
25

> <canonical_smiles>
FC1=CC(NC(CC2=CN=C(NC(C3=C4)=NC=NC3=CC(OCCCN5CCN(CO)CC5)=C4OC)S2)=O)=CC=C1

> <standard_relation>
=

> <Publication_ID>
nan

> <predicted_activity_value>
8.080921907623926

> <actual_activity_value>
8.154901959985743

> <Compound>
2

> <standard_units>
nM

> hash
10397007601345888930

$$$$
2_
XXILIB    08252103493D 0   0.00000     0.00000

 41 45  0     1  0            999 V2000
   -7.2332   -0.4203    2.2023 S   0  0  0  0  0  2           0  0  0
   -7.6621   -3.9741    8.7019 F   0  0  0  0  0  1           0  0  0
    1.3665    0.0000   -0.0000 O   0  0  0  0  0  2           0  0  0
   -0.2265    0.0177    2.3956 O   0  0  0  0  0  2           0  0  0
   -9.8880   -4.0289    2.5653 O   0  0  0  0  0  2           0  0  0
    7.7248    1.8449   -6.2022 O   0  0  0  0  0  2           0  0  0
   -6.8922   -1.2910   -0.1929 N   0  0  0  0  0  3           0  0  0
   -4.7413   -0.1329   -1.6762 N   0  0  0  0  0  3           0  0  0
   -2.5341   -0.1745   -2.6127 N   0  0  0  0  0  3           0  0  0
   -5.0858    0.0071    0.6803 N   0  0  0  0  0  3           0  0  0
   -9.1087   -2.7332    4.3308 N   0  0  0  0  0  3           0  0  0
    6.5763    1.4484   -4.0947 N   0  0  2  0  0  3           0  0  0
    4.5054    1.9920   -2.1483 N   0  0  2  0  0  3           0  0  0
   -6.3032   -0.5809    0.7509 C   0  0  0  0  0  4           0  0  0
   -8.4901   -1.3570    1.5128 C   0  0  0  0  0  4           0  0  0
   -8.1318   -4.3397    7.5010 C   0  0  0  0  0  4           0  0  0
    0.0000    0.0000    0.0000 C   0  0  0  0  0  4           0  0  0
   -0.7842   -0.0000    1.1485 C   0  0  0  0  0  4           0  0  0
   -3.8723   -0.1927   -2.6948 C   0  0  0  0  0  4           0  0  0
   -4.2160   -0.0351   -0.4296 C   0  0  0  0  0  4           0  0  0
   -2.0092   -0.0989   -1.3832 C   0  0  0  0  0  4           0  0  0
   -8.1294   -1.7265    0.2349 C   0  0  0  0  0  4           0  0  0
   -8.8721   -3.7422    5.2828 C   0  0  0  0  0  4           0  0  0
   -2.8125   -0.0368   -0.2252 C   0  0  0  0  0  4           0  0  0
   -8.3840   -3.3649    6.5382 C   0  0  0  0  0  4           0  0  0
   -8.3589   -5.6865    7.2377 C   0  0  0  0  0  4           0  0  0
   -0.6223   -0.0813   -1.2484 C   0  0  0  0  0  4           0  0  0
   -2.1764    0.0066    1.0400 C   0  0  0  0  0  4           0  0  0
   -9.1056   -5.0974    5.0121 C   0  0  0  0  0  4           0  0  0
   -8.8482   -6.0638    5.9894 C   0  0  0  0  0  4           0  0  0
   -9.5884   -2.9377    3.0490 C   0  0  0  0  0  4           0  0  0
    7.8420    1.6546   -4.7940 C   0  0  0  0  0  4           0  0  0
    1.9797    1.1167    0.6447 C   0  0  0  0  0  4           0  0  0
    0.0385   -1.2629    2.9630 C   0  0  0  0  0  4           0  0  0
    5.6677    2.5873   -4.2554 C   0  0  0  0  0  4           0  0  0
    6.7757    1.1461   -2.6743 C   0  0  0  0  0  4           0  0  0
    4.3246    2.3005   -3.5753 C   0  0  0  0  0  4           0  0  0
    5.4333    0.8606   -1.9904 C   0  0  0  0  0  4           0  0  0
    3.2088    1.7258   -1.5173 C   0  0  0  0  0  4           0  0  0
   -9.7372   -1.6547    2.2634 C   0  0  0  0  0  4           0  0  0
    3.3185    1.3961   -0.0268 C   0  0  0  0  0  4           0  0  0
  1 14  1  0     0  0
  1 15  1  0     0  0
  2 16  1  0     0  0
  3 17  1  0     0  0
  3 33  1  0     0  0
  4 18  1  0     0  0
  4 34  1  0     0  0
  5 31  2  0     0  0
  6 32  1  0     0  0
  7 14  2  0     0  0
  7 22  1  0     0  0
  8 19  1  0     0  0
  8 20  2  0     0  0
  9 19  2  0     0  0
  9 21  1  0     0  0
 10 14  1  0     0  0
 10 20  1  0     0  0
 11 23  1  0     0  0
 11 31  1  0     0  0
 12 32  1  0     0  0
 12 35  1  0     0  0
 12 36  1  0     0  0
 13 37  1  0     0  0
 13 38  1  0     0  0
 13 39  1  0     0  0
 15 22  2  0     0  0
 15 40  1  0     0  0
 16 25  2  0     0  0
 16 26  1  0     0  0
 17 18  2  0     0  0
 17 27  1  0     0  0
 18 28  1  0     0  0
 20 24  1  0     0  0
 21 24  1  0     0  0
 21 27  2  0     0  0
 23 25  1  0     0  0
 23 29  2  0     0  0
 24 28  2  0     0  0
 26 30  2  0     0  0
 29 30  1  0     0  0
 31 40  1  0     0  0
 33 41  1  0     0  0
 35 37  1  0     0  0
 36 38  1  0     0  0
 39 41  1  0     0  0
M  END
> <standard_type>
pIC50

> <# Confs.>
25

> <canonical_smiles>
FC1=CC(NC(CC2=CN=C(NC(C3=C4)=NC=NC3=CC(OCCCN5CCN(CO)CC5)=C4OC)S2)=O)=CC=C1

> <standard_relation>
=

> <Publication_ID>
nan

> <predicted_activity_value>
8.080921907623926

> <actual_activity_value>
8.154901959985743

> <Compound>
2

> <standard_units>
nM

> hash
10397007601345888930

$$$$
2_
XXILIB    08252103493D 0   0.00000     0.00000

 41 45  0     1  0            999 V2000
   -7.2332   -0.4203    2.2023 S   0  0  0  0  0  2           0  0  0
   -7.6621   -3.9741    8.7019 F   0  0  0  0  0  1           0  0  0
    1.3665   -0.0000    0.0000 O   0  0  0  0  0  2           0  0  0
   -0.2265    0.0177    2.3956 O   0  0  0  0  0  2           0  0  0
   -9.8880   -4.0289    2.5653 O   0  0  0  0  0  2           0  0  0
    2.1641    8.2987   -1.8649 O   0  0  0  0  0  2           0  0  0
   -6.8922   -1.2910   -0.1929 N   0  0  0  0  0  3           0  0  0
   -4.7413   -0.1329   -1.6762 N   0  0  0  0  0  3           0  0  0
   -2.5341   -0.1745   -2.6127 N   0  0  0  0  0  3           0  0  0
   -5.0858    0.0071    0.6803 N   0  0  0  0  0  3           0  0  0
   -9.1087   -2.7332    4.3308 N   0  0  0  0  0  3           0  0  0
    3.0318    6.5860   -0.3711 N   0  0  2  0  0  3           0  0  0
    3.3440    3.8435    0.4972 N   0  0  2  0  0  3           0  0  0
   -6.3032   -0.5809    0.7509 C   0  0  0  0  0  4           0  0  0
   -8.4901   -1.3570    1.5128 C   0  0  0  0  0  4           0  0  0
   -8.1318   -4.3397    7.5010 C   0  0  0  0  0  4           0  0  0
    0.0000    0.0000    0.0000 C   0  0  0  0  0  4           0  0  0
   -0.7842   -0.0000    1.1485 C   0  0  0  0  0  4           0  0  0
   -3.8723   -0.1927   -2.6948 C   0  0  0  0  0  4           0  0  0
   -4.2160   -0.0351   -0.4296 C   0  0  0  0  0  4           0  0  0
   -2.0092   -0.0989   -1.3832 C   0  0  0  0  0  4           0  0  0
   -8.1294   -1.7265    0.2349 C   0  0  0  0  0  4           0  0  0
   -8.8721   -3.7422    5.2828 C   0  0  0  0  0  4           0  0  0
   -2.8125   -0.0368   -0.2252 C   0  0  0  0  0  4           0  0  0
   -8.3840   -3.3649    6.5382 C   0  0  0  0  0  4           0  0  0
   -8.3589   -5.6865    7.2377 C   0  0  0  0  0  4           0  0  0
   -0.6223   -0.0813   -1.2484 C   0  0  0  0  0  4           0  0  0
   -2.1764    0.0066    1.0400 C   0  0  0  0  0  4           0  0  0
   -9.1056   -5.0974    5.0121 C   0  0  0  0  0  4           0  0  0
   -8.8482   -6.0638    5.9894 C   0  0  0  0  0  4           0  0  0
   -9.5884   -2.9377    3.0490 C   0  0  0  0  0  4           0  0  0
    2.3590    7.8742   -0.5178 C   0  0  0  0  0  4           0  0  0
    1.9797    1.1167    0.6447 C   0  0  0  0  0  4           0  0  0
    0.0385   -1.2629    2.9630 C   0  0  0  0  0  4           0  0  0
    2.2858    5.4999   -1.0133 C   0  0  0  0  0  4           0  0  0
    3.3025    6.2637    1.0331 C   0  0  0  0  0  4           0  0  0
    3.0607    4.1820   -0.9061 C   0  0  0  0  0  4           0  0  0
    4.0760    4.9444    1.1438 C   0  0  0  0  0  4           0  0  0
    4.0809    2.5783    0.5762 C   0  0  0  0  0  4           0  0  0
   -9.7372   -1.6547    2.2634 C   0  0  0  0  0  4           0  0  0
    3.3185    1.3961   -0.0268 C   0  0  0  0  0  4           0  0  0
  1 14  1  0     0  0
  1 15  1  0     0  0
  2 16  1  0     0  0
  3 17  1  0     0  0
  3 33  1  0     0  0
  4 18  1  0     0  0
  4 34  1  0     0  0
  5 31  2  0     0  0
  6 32  1  0     0  0
  7 14  2  0     0  0
  7 22  1  0     0  0
  8 19  1  0     0  0
  8 20  2  0     0  0
  9 19  2  0     0  0
  9 21  1  0     0  0
 10 14  1  0     0  0
 10 20  1  0     0  0
 11 23  1  0     0  0
 11 31  1  0     0  0
 12 32  1  0     0  0
 12 35  1  0     0  0
 12 36  1  0     0  0
 13 37  1  0     0  0
 13 38  1  0     0  0
 13 39  1  0     0  0
 15 22  2  0     0  0
 15 40  1  0     0  0
 16 25  2  0     0  0
 16 26  1  0     0  0
 17 18  2  0     0  0
 17 27  1  0     0  0
 18 28  1  0     0  0
 20 24  1  0     0  0
 21 24  1  0     0  0
 21 27  2  0     0  0
 23 25  1  0     0  0
 23 29  2  0     0  0
 24 28  2  0     0  0
 26 30  2  0     0  0
 29 30  1  0     0  0
 31 40  1  0     0  0
 33 41  1  0     0  0
 35 37  1  0     0  0
 36 38  1  0     0  0
 39 41  1  0     0  0
M  END
> <standard_type>
pIC50

> <# Confs.>
25

> <canonical_smiles>
FC1=CC(NC(CC2=CN=C(NC(C3=C4)=NC=NC3=CC(OCCCN5CCN(CO)CC5)=C4OC)S2)=O)=CC=C1

> <standard_relation>
=

> <Publication_ID>
nan

> <predicted_activity_value>
8.080921907623926

> <actual_activity_value>
8.154901959985743

> <Compound>
2

> <standard_units>
nM

> hash
10397007601345888930

$$$$
2_
XXILIB    08252103493D 0   0.00000     0.00000

 41 45  0     1  0            999 V2000
   -7.2332   -0.4203    2.2023 S   0  0  0  0  0  2           0  0  0
  -11.9157    4.6369    4.8730 F   0  0  0  0  0  1           0  0  0
    1.3665    0.0000   -0.0000 O   0  0  0  0  0  2           0  0  0
   -0.2265    0.0177    2.3956 O   0  0  0  0  0  2           0  0  0
  -11.5799   -0.6700    1.0863 O   0  0  0  0  0  2           0  0  0
    3.1589   -8.9940   -0.0113 O   0  0  0  0  0  2           0  0  0
   -6.8922   -1.2910   -0.1929 N   0  0  0  0  0  3           0  0  0
   -4.7413   -0.1329   -1.6762 N   0  0  0  0  0  3           0  0  0
   -2.5341   -0.1745   -2.6127 N   0  0  0  0  0  3           0  0  0
   -5.0858    0.0071    0.6803 N   0  0  0  0  0  3           0  0  0
  -10.6925    0.4674    2.9089 N   0  0  0  0  0  3           0  0  0
    3.0371   -6.5897   -0.3612 N   0  0  2  0  0  3           0  0  0
    3.3440   -3.8435    0.4972 N   0  0  2  0  0  3           0  0  0
   -6.3032   -0.5809    0.7509 C   0  0  0  0  0  4           0  0  0
   -8.4901   -1.3570    1.5128 C   0  0  0  0  0  4           0  0  0
  -12.1253    3.7054    3.9323 C   0  0  0  0  0  4           0  0  0
    0.0000    0.0000    0.0000 C   0  0  0  0  0  4           0  0  0
   -0.7842   -0.0000    1.1485 C   0  0  0  0  0  4           0  0  0
   -3.8723   -0.1927   -2.6948 C   0  0  0  0  0  4           0  0  0
   -4.2160   -0.0351   -0.4296 C   0  0  0  0  0  4           0  0  0
   -2.0092   -0.0989   -1.3832 C   0  0  0  0  0  4           0  0  0
   -8.1294   -1.7265    0.2349 C   0  0  0  0  0  4           0  0  0
  -11.5279    1.5999    2.9149 C   0  0  0  0  0  4           0  0  0
   -2.8125   -0.0368   -0.2252 C   0  0  0  0  0  4           0  0  0
  -11.3112    2.5755    3.8936 C   0  0  0  0  0  4           0  0  0
  -13.1524    3.8839    3.0114 C   0  0  0  0  0  4           0  0  0
   -0.6223   -0.0813   -1.2484 C   0  0  0  0  0  4           0  0  0
   -2.1764    0.0066    1.0400 C   0  0  0  0  0  4           0  0  0
  -12.5594    1.7751    1.9823 C   0  0  0  0  0  4           0  0  0
  -13.3673    2.9152    2.0340 C   0  0  0  0  0  4           0  0  0
  -10.7742   -0.5836    2.0124 C   0  0  0  0  0  4           0  0  0
    2.3828   -7.8908   -0.4734 C   0  0  0  0  0  4           0  0  0
    1.9797   -1.1167    0.6447 C   0  0  0  0  0  4           0  0  0
    0.0061    1.3142    2.9409 C   0  0  0  0  0  4           0  0  0
    3.3804   -6.2650    1.0264 C   0  0  0  0  0  4           0  0  0
    2.2346   -5.5173   -0.9568 C   0  0  0  0  0  4           0  0  0
    4.1337   -4.9320    1.0933 C   0  0  0  0  0  4           0  0  0
    2.9848   -4.1818   -0.8894 C   0  0  0  0  0  4           0  0  0
    4.0809   -2.5783    0.5762 C   0  0  0  0  0  4           0  0  0
   -9.7372   -1.6547    2.2634 C   0  0  0  0  0  4           0  0  0
    3.3185   -1.3961   -0.0268 C   0  0  0  0  0  4           0  0  0
  1 14  1  0     0  0
  1 15  1  0     0  0
  2 16  1  0     0  0
  3 17  1  0     0  0
  3 33  1  0     0  0
  4 18  1  0     0  0
  4 34  1  0     0  0
  5 31  2  0     0  0
  6 32  1  0     0  0
  7 14  2  0     0  0
  7 22  1  0     0  0
  8 19  1  0     0  0
  8 20  2  0     0  0
  9 19  2  0     0  0
  9 21  1  0     0  0
 10 14  1  0     0  0
 10 20  1  0     0  0
 11 23  1  0     0  0
 11 31  1  0     0  0
 12 32  1  0     0  0
 12 35  1  0     0  0
 12 36  1  0     0  0
 13 37  1  0     0  0
 13 38  1  0     0  0
 13 39  1  0     0  0
 15 22  2  0     0  0
 15 40  1  0     0  0
 16 25  2  0     0  0
 16 26  1  0     0  0
 17 18  2  0     0  0
 17 27  1  0     0  0
 18 28  1  0     0  0
 20 24  1  0     0  0
 21 24  1  0     0  0
 21 27  2  0     0  0
 23 25  1  0     0  0
 23 29  2  0     0  0
 24 28  2  0     0  0
 26 30  2  0     0  0
 29 30  1  0     0  0
 31 40  1  0     0  0
 33 41  1  0     0  0
 35 37  1  0     0  0
 36 38  1  0     0  0
 39 41  1  0     0  0
M  END
> <standard_type>
pIC50

> <# Confs.>
25

> <canonical_smiles>
FC1=CC(NC(CC2=CN=C(NC(C3=C4)=NC=NC3=CC(OCCCN5CCN(CO)CC5)=C4OC)S2)=O)=CC=C1

> <standard_relation>
=

> <Publication_ID>
nan

> <predicted_activity_value>
8.080921907623926

> <actual_activity_value>
8.154901959985743

> <Compound>
2

> <standard_units>
nM

> hash
10397007601345888930

$$$$
2_
XXILIB    08252103493D 0   0.00000     0.00000

 41 45  0     1  0            999 V2000
   -7.2332   -0.4203    2.2023 S   0  0  0  0  0  2           0  0  0
  -14.3587    3.4541    0.3448 F   0  0  0  0  0  1           0  0  0
    1.3665    0.0000   -0.0000 O   0  0  0  0  0  2           0  0  0
   -0.2265    0.0177    2.3956 O   0  0  0  0  0  2           0  0  0
  -11.4107   -2.3597    0.6972 O   0  0  0  0  0  2           0  0  0
    3.1589   -8.9940   -0.0113 O   0  0  0  0  0  2           0  0  0
   -6.8922   -1.2910   -0.1929 N   0  0  0  0  0  3           0  0  0
   -4.7413   -0.1329   -1.6762 N   0  0  0  0  0  3           0  0  0
   -2.5341   -0.1745   -2.6127 N   0  0  0  0  0  3           0  0  0
   -5.0858    0.0071    0.6803 N   0  0  0  0  0  3           0  0  0
  -11.4350   -0.1535    1.4289 N   0  0  0  0  0  3           0  0  0
    3.0371   -6.5897   -0.3612 N   0  0  2  0  0  3           0  0  0
    3.3440   -3.8435    0.4972 N   0  0  2  0  0  3           0  0  0
   -6.3032   -0.5809    0.7509 C   0  0  0  0  0  4           0  0  0
   -8.4901   -1.3570    1.5128 C   0  0  0  0  0  4           0  0  0
  -14.0132    2.1688    0.1861 C   0  0  0  0  0  4           0  0  0
    0.0000    0.0000    0.0000 C   0  0  0  0  0  4           0  0  0
   -0.7842   -0.0000    1.1485 C   0  0  0  0  0  4           0  0  0
   -3.8723   -0.1927   -2.6948 C   0  0  0  0  0  4           0  0  0
   -4.2160   -0.0351   -0.4296 C   0  0  0  0  0  4           0  0  0
   -2.0092   -0.0989   -1.3832 C   0  0  0  0  0  4           0  0  0
   -8.1294   -1.7265    0.2349 C   0  0  0  0  0  4           0  0  0
  -12.5485    0.3244    0.7133 C   0  0  0  0  0  4           0  0  0
   -2.8125   -0.0368   -0.2252 C   0  0  0  0  0  4           0  0  0
  -12.9113    1.6657    0.8742 C   0  0  0  0  0  4           0  0  0
  -14.7615    1.3604   -0.6631 C   0  0  0  0  0  4           0  0  0
   -0.6223   -0.0813   -1.2484 C   0  0  0  0  0  4           0  0  0
   -2.1764    0.0066    1.0400 C   0  0  0  0  0  4           0  0  0
  -13.2968   -0.4949   -0.1430 C   0  0  0  0  0  4           0  0  0
  -14.3996    0.0254   -0.8273 C   0  0  0  0  0  4           0  0  0
  -10.9476   -1.4478    1.3815 C   0  0  0  0  0  4           0  0  0
    2.3828   -7.8908   -0.4734 C   0  0  0  0  0  4           0  0  0
    1.9797   -1.1167    0.6447 C   0  0  0  0  0  4           0  0  0
    0.0061    1.3142    2.9409 C   0  0  0  0  0  4           0  0  0
    3.3804   -6.2650    1.0264 C   0  0  0  0  0  4           0  0  0
    2.2346   -5.5173   -0.9568 C   0  0  0  0  0  4           0  0  0
    4.1337   -4.9320    1.0933 C   0  0  0  0  0  4           0  0  0
    2.9848   -4.1818   -0.8894 C   0  0  0  0  0  4           0  0  0
    4.0809   -2.5783    0.5762 C   0  0  0  0  0  4           0  0  0
   -9.7372   -1.6547    2.2634 C   0  0  0  0  0  4           0  0  0
    3.3185   -1.3961   -0.0268 C   0  0  0  0  0  4           0  0  0
  1 14  1  0     0  0
  1 15  1  0     0  0
  2 16  1  0     0  0
  3 17  1  0     0  0
  3 33  1  0     0  0
  4 18  1  0     0  0
  4 34  1  0     0  0
  5 31  2  0     0  0
  6 32  1  0     0  0
  7 14  2  0     0  0
  7 22  1  0     0  0
  8 19  1  0     0  0
  8 20  2  0     0  0
  9 19  2  0     0  0
  9 21  1  0     0  0
 10 14  1  0     0  0
 10 20  1  0     0  0
 11 23  1  0     0  0
 11 31  1  0     0  0
 12 32  1  0     0  0
 12 35  1  0     0  0
 12 36  1  0     0  0
 13 37  1  0     0  0
 13 38  1  0     0  0
 13 39  1  0     0  0
 15 22  2  0     0  0
 15 40  1  0     0  0
 16 25  2  0     0  0
 16 26  1  0     0  0
 17 18  2  0     0  0
 17 27  1  0     0  0
 18 28  1  0     0  0
 20 24  1  0     0  0
 21 24  1  0     0  0
 21 27  2  0     0  0
 23 25  1  0     0  0
 23 29  2  0     0  0
 24 28  2  0     0  0
 26 30  2  0     0  0
 29 30  1  0     0  0
 31 40  1  0     0  0
 33 41  1  0     0  0
 35 37  1  0     0  0
 36 38  1  0     0  0
 39 41  1  0     0  0
M  END
> <standard_type>
pIC50

> <# Confs.>
25

> <canonical_smiles>
FC1=CC(NC(CC2=CN=C(NC(C3=C4)=NC=NC3=CC(OCCCN5CCN(CO)CC5)=C4OC)S2)=O)=CC=C1

> <standard_relation>
=

> <Publication_ID>
nan

> <predicted_activity_value>
8.080921907623926

> <actual_activity_value>
8.154901959985743

> <Compound>
2

> <standard_units>
nM

> hash
10397007601345888930

$$$$
2_
XXILIB    08252103493D 0   0.00000     0.00000

 41 45  0     1  0            999 V2000
   -7.2332   -0.4203    2.2023 S   0  0  0  0  0  2           0  0  0
   -8.6720   -7.9735    5.4377 F   0  0  0  0  0  1           0  0  0
    1.3665   -0.0000   -0.0000 O   0  0  0  0  0  2           0  0  0
   -0.2265    0.0177    2.3956 O   0  0  0  0  0  2           0  0  0
  -10.8348   -3.5031    1.2007 O   0  0  0  0  0  2           0  0  0
    1.2660    7.1436   -4.5553 O   0  0  0  0  0  2           0  0  0
   -6.8922   -1.2910   -0.1929 N   0  0  0  0  0  3           0  0  0
   -4.7413   -0.1329   -1.6762 N   0  0  0  0  0  3           0  0  0
   -2.5341   -0.1745   -2.6127 N   0  0  0  0  0  3           0  0  0
   -5.0858    0.0071    0.6803 N   0  0  0  0  0  3           0  0  0
   -9.5654   -3.9120    3.1045 N   0  0  0  0  0  3           0  0  0
    2.0025    5.5783   -2.8449 N   0  0  2  0  0  3           0  0  0
    2.3915    2.9124   -1.7892 N   0  0  2  0  0  3           0  0  0
   -6.3032   -0.5809    0.7509 C   0  0  0  0  0  4           0  0  0
   -8.4901   -1.3570    1.5128 C   0  0  0  0  0  4           0  0  0
   -9.2707   -7.3434    4.4175 C   0  0  0  0  0  4           0  0  0
    0.0000    0.0000    0.0000 C   0  0  0  0  0  4           0  0  0
   -0.7842   -0.0000    1.1485 C   0  0  0  0  0  4           0  0  0
   -3.8723   -0.1927   -2.6948 C   0  0  0  0  0  4           0  0  0
   -4.2160   -0.0351   -0.4296 C   0  0  0  0  0  4           0  0  0
   -2.0092   -0.0989   -1.3832 C   0  0  0  0  0  4           0  0  0
   -8.1294   -1.7265    0.2349 C   0  0  0  0  0  4           0  0  0
   -9.7428   -5.3034    3.2169 C   0  0  0  0  0  4           0  0  0
   -2.8125   -0.0368   -0.2252 C   0  0  0  0  0  4           0  0  0
   -9.1216   -5.9649    4.2815 C   0  0  0  0  0  4           0  0  0
  -10.0302   -8.0775    3.5125 C   0  0  0  0  0  4           0  0  0
   -0.6223   -0.0813   -1.2484 C   0  0  0  0  0  4           0  0  0
   -2.1764    0.0066    1.0400 C   0  0  0  0  0  4           0  0  0
  -10.5117   -6.0370    2.3031 C   0  0  0  0  0  4           0  0  0
  -10.6523   -7.4200    2.4539 C   0  0  0  0  0  4           0  0  0
  -10.1091   -3.1124    2.1145 C   0  0  0  0  0  4           0  0  0
    1.2579    6.7912   -3.1737 C   0  0  0  0  0  4           0  0  0
    1.9797    1.1167    0.6447 C   0  0  0  0  0  4           0  0  0
    0.0385   -1.2629    2.9630 C   0  0  0  0  0  4           0  0  0
    1.4760    4.4033   -3.5455 C   0  0  0  0  0  4           0  0  0
    2.0500    5.3369   -1.3999 C   0  0  0  0  0  4           0  0  0
    2.3301    3.1688   -3.2365 C   0  0  0  0  0  4           0  0  0
    2.9022    4.1011   -1.0876 C   0  0  0  0  0  4           0  0  0
    3.2088    1.7258   -1.5173 C   0  0  0  0  0  4           0  0  0
   -9.7372   -1.6547    2.2634 C   0  0  0  0  0  4           0  0  0
    3.3185    1.3961   -0.0268 C   0  0  0  0  0  4           0  0  0
  1 14  1  0     0  0
  1 15  1  0     0  0
  2 16  1  0     0  0
  3 17  1  0     0  0
  3 33  1  0     0  0
  4 18  1  0     0  0
  4 34  1  0     0  0
  5 31  2  0     0  0
  6 32  1  0     0  0
  7 14  2  0     0  0
  7 22  1  0     0  0
  8 19  1  0     0  0
  8 20  2  0     0  0
  9 19  2  0     0  0
  9 21  1  0     0  0
 10 14  1  0     0  0
 10 20  1  0     0  0
 11 23  1  0     0  0
 11 31  1  0     0  0
 12 32  1  0     0  0
 12 35  1  0     0  0
 12 36  1  0     0  0
 13 37  1  0     0  0
 13 38  1  0     0  0
 13 39  1  0     0  0
 15 22  2  0     0  0
 15 40  1  0     0  0
 16 25  2  0     0  0
 16 26  1  0     0  0
 17 18  2  0     0  0
 17 27  1  0     0  0
 18 28  1  0     0  0
 20 24  1  0     0  0
 21 24  1  0     0  0
 21 27  2  0     0  0
 23 25  1  0     0  0
 23 29  2  0     0  0
 24 28  2  0     0  0
 26 30  2  0     0  0
 29 30  1  0     0  0
 31 40  1  0     0  0
 33 41  1  0     0  0
 35 37  1  0     0  0
 36 38  1  0     0  0
 39 41  1  0     0  0
M  END
> <standard_type>
pIC50

> <# Confs.>
25

> <canonical_smiles>
FC1=CC(NC(CC2=CN=C(NC(C3=C4)=NC=NC3=CC(OCCCN5CCN(CO)CC5)=C4OC)S2)=O)=CC=C1

> <standard_relation>
=

> <Publication_ID>
nan

> <predicted_activity_value>
8.080921907623926

> <actual_activity_value>
8.154901959985743

> <Compound>
2

> <standard_units>
nM

> hash
10397007601345888930

$$$$
2_
XXILIB    08252103493D 0   0.00000     0.00000

 41 45  0     1  0            999 V2000
   -7.2332   -0.4203    2.2023 S   0  0  0  0  0  2           0  0  0
   -8.6720   -7.9735    5.4377 F   0  0  0  0  0  1           0  0  0
    1.3665   -0.0000   -0.0000 O   0  0  0  0  0  2           0  0  0
   -0.2265    0.0177    2.3956 O   0  0  0  0  0  2           0  0  0
  -10.8348   -3.5031    1.2007 O   0  0  0  0  0  2           0  0  0
    5.4025    3.4340    7.4849 O   0  0  0  0  0  2           0  0  0
   -6.8922   -1.2910   -0.1929 N   0  0  0  0  0  3           0  0  0
   -4.7413   -0.1329   -1.6762 N   0  0  0  0  0  3           0  0  0
   -2.5341   -0.1745   -2.6127 N   0  0  0  0  0  3           0  0  0
   -5.0858    0.0071    0.6803 N   0  0  0  0  0  3           0  0  0
   -9.5654   -3.9120    3.1045 N   0  0  0  0  0  3           0  0  0
    4.7708    2.2935    5.4311 N   0  0  2  0  0  3           0  0  0
    3.9871    2.2497    2.6460 N   0  0  2  0  0  3           0  0  0
   -6.3032   -0.5809    0.7509 C   0  0  0  0  0  4           0  0  0
   -8.4901   -1.3570    1.5128 C   0  0  0  0  0  4           0  0  0
   -9.2707   -7.3434    4.4175 C   0  0  0  0  0  4           0  0  0
    0.0000    0.0000    0.0000 C   0  0  0  0  0  4           0  0  0
   -0.7842   -0.0000    1.1485 C   0  0  0  0  0  4           0  0  0
   -3.8723   -0.1927   -2.6948 C   0  0  0  0  0  4           0  0  0
   -4.2160   -0.0351   -0.4296 C   0  0  0  0  0  4           0  0  0
   -2.0092   -0.0989   -1.3832 C   0  0  0  0  0  4           0  0  0
   -8.1294   -1.7265    0.2349 C   0  0  0  0  0  4           0  0  0
   -9.7428   -5.3034    3.2169 C   0  0  0  0  0  4           0  0  0
   -2.8125   -0.0368   -0.2252 C   0  0  0  0  0  4           0  0  0
   -9.1216   -5.9649    4.2815 C   0  0  0  0  0  4           0  0  0
  -10.0302   -8.0775    3.5125 C   0  0  0  0  0  4           0  0  0
   -0.6223   -0.0813   -1.2484 C   0  0  0  0  0  4           0  0  0
   -2.1764    0.0066    1.0400 C   0  0  0  0  0  4           0  0  0
  -10.5117   -6.0370    2.3031 C   0  0  0  0  0  4           0  0  0
  -10.6523   -7.4200    2.4539 C   0  0  0  0  0  4           0  0  0
  -10.1091   -3.1124    2.1145 C   0  0  0  0  0  4           0  0  0
    4.5811    2.4428    6.8717 C   0  0  0  0  0  4           0  0  0
    1.9797    1.1167    0.6447 C   0  0  0  0  0  4           0  0  0
    0.0385   -1.2629    2.9630 C   0  0  0  0  0  4           0  0  0
    4.4821    3.5349    4.7071 C   0  0  0  0  0  4           0  0  0
    3.9829    1.1846    4.8848 C   0  0  0  0  0  4           0  0  0
    4.7677    3.3609    3.2115 C   0  0  0  0  0  4           0  0  0
    4.2649    1.0092    3.3878 C   0  0  0  0  0  4           0  0  0
    4.2721    2.1045    1.2150 C   0  0  0  0  0  4           0  0  0
   -9.7372   -1.6547    2.2634 C   0  0  0  0  0  4           0  0  0
    3.4930    0.9636    0.5563 C   0  0  0  0  0  4           0  0  0
  1 14  1  0     0  0
  1 15  1  0     0  0
  2 16  1  0     0  0
  3 17  1  0     0  0
  3 33  1  0     0  0
  4 18  1  0     0  0
  4 34  1  0     0  0
  5 31  2  0     0  0
  6 32  1  0     0  0
  7 14  2  0     0  0
  7 22  1  0     0  0
  8 19  1  0     0  0
  8 20  2  0     0  0
  9 19  2  0     0  0
  9 21  1  0     0  0
 10 14  1  0     0  0
 10 20  1  0     0  0
 11 23  1  0     0  0
 11 31  1  0     0  0
 12 32  1  0     0  0
 12 35  1  0     0  0
 12 36  1  0     0  0
 13 37  1  0     0  0
 13 38  1  0     0  0
 13 39  1  0     0  0
 15 22  2  0     0  0
 15 40  1  0     0  0
 16 25  2  0     0  0
 16 26  1  0     0  0
 17 18  2  0     0  0
 17 27  1  0     0  0
 18 28  1  0     0  0
 20 24  1  0     0  0
 21 24  1  0     0  0
 21 27  2  0     0  0
 23 25  1  0     0  0
 23 29  2  0     0  0
 24 28  2  0     0  0
 26 30  2  0     0  0
 29 30  1  0     0  0
 31 40  1  0     0  0
 33 41  1  0     0  0
 35 37  1  0     0  0
 36 38  1  0     0  0
 39 41  1  0     0  0
M  END
> <standard_type>
pIC50

> <# Confs.>
25

> <canonical_smiles>
FC1=CC(NC(CC2=CN=C(NC(C3=C4)=NC=NC3=CC(OCCCN5CCN(CO)CC5)=C4OC)S2)=O)=CC=C1

> <standard_relation>
=

> <Publication_ID>
nan

> <predicted_activity_value>
8.080921907623926

> <actual_activity_value>
8.154901959985743

> <Compound>
2

> <standard_units>
nM

> hash
10397007601345888930

$$$$
2_
XXILIB    08252103493D 0   0.00000     0.00000

 41 45  0     1  0            999 V2000
   -7.2332   -0.4203    2.2023 S   0  0  0  0  0  2           0  0  0
   -8.6720   -7.9735    5.4377 F   0  0  0  0  0  1           0  0  0
    1.3665    0.0000   -0.0000 O   0  0  0  0  0  2           0  0  0
   -0.2265    0.0177    2.3956 O   0  0  0  0  0  2           0  0  0
  -10.8348   -3.5031    1.2007 O   0  0  0  0  0  2           0  0  0
    7.7248    1.8449   -6.2022 O   0  0  0  0  0  2           0  0  0
   -6.8922   -1.2910   -0.1929 N   0  0  0  0  0  3           0  0  0
   -4.7413   -0.1329   -1.6762 N   0  0  0  0  0  3           0  0  0
   -2.5341   -0.1745   -2.6127 N   0  0  0  0  0  3           0  0  0
   -5.0858    0.0071    0.6803 N   0  0  0  0  0  3           0  0  0
   -9.5654   -3.9120    3.1045 N   0  0  0  0  0  3           0  0  0
    6.5763    1.4484   -4.0947 N   0  0  2  0  0  3           0  0  0
    4.5054    1.9920   -2.1483 N   0  0  2  0  0  3           0  0  0
   -6.3032   -0.5809    0.7509 C   0  0  0  0  0  4           0  0  0
   -8.4901   -1.3570    1.5128 C   0  0  0  0  0  4           0  0  0
   -9.2707   -7.3434    4.4175 C   0  0  0  0  0  4           0  0  0
    0.0000    0.0000    0.0000 C   0  0  0  0  0  4           0  0  0
   -0.7842   -0.0000    1.1485 C   0  0  0  0  0  4           0  0  0
   -3.8723   -0.1927   -2.6948 C   0  0  0  0  0  4           0  0  0
   -4.2160   -0.0351   -0.4296 C   0  0  0  0  0  4           0  0  0
   -2.0092   -0.0989   -1.3832 C   0  0  0  0  0  4           0  0  0
   -8.1294   -1.7265    0.2349 C   0  0  0  0  0  4           0  0  0
   -9.7428   -5.3034    3.2169 C   0  0  0  0  0  4           0  0  0
   -2.8125   -0.0368   -0.2252 C   0  0  0  0  0  4           0  0  0
   -9.1216   -5.9649    4.2815 C   0  0  0  0  0  4           0  0  0
  -10.0302   -8.0775    3.5125 C   0  0  0  0  0  4           0  0  0
   -0.6223   -0.0813   -1.2484 C   0  0  0  0  0  4           0  0  0
   -2.1764    0.0066    1.0400 C   0  0  0  0  0  4           0  0  0
  -10.5117   -6.0370    2.3031 C   0  0  0  0  0  4           0  0  0
  -10.6523   -7.4200    2.4539 C   0  0  0  0  0  4           0  0  0
  -10.1091   -3.1124    2.1145 C   0  0  0  0  0  4           0  0  0
    7.8420    1.6546   -4.7940 C   0  0  0  0  0  4           0  0  0
    1.9797    1.1167    0.6447 C   0  0  0  0  0  4           0  0  0
    0.0385   -1.2629    2.9630 C   0  0  0  0  0  4           0  0  0
    5.6677    2.5873   -4.2554 C   0  0  0  0  0  4           0  0  0
    6.7757    1.1461   -2.6743 C   0  0  0  0  0  4           0  0  0
    4.3246    2.3005   -3.5753 C   0  0  0  0  0  4           0  0  0
    5.4333    0.8606   -1.9904 C   0  0  0  0  0  4           0  0  0
    3.2088    1.7258   -1.5173 C   0  0  0  0  0  4           0  0  0
   -9.7372   -1.6547    2.2634 C   0  0  0  0  0  4           0  0  0
    3.3185    1.3961   -0.0268 C   0  0  0  0  0  4           0  0  0
  1 14  1  0     0  0
  1 15  1  0     0  0
  2 16  1  0     0  0
  3 17  1  0     0  0
  3 33  1  0     0  0
  4 18  1  0     0  0
  4 34  1  0     0  0
  5 31  2  0     0  0
  6 32  1  0     0  0
  7 14  2  0     0  0
  7 22  1  0     0  0
  8 19  1  0     0  0
  8 20  2  0     0  0
  9 19  2  0     0  0
  9 21  1  0     0  0
 10 14  1  0     0  0
 10 20  1  0     0  0
 11 23  1  0     0  0
 11 31  1  0     0  0
 12 32  1  0     0  0
 12 35  1  0     0  0
 12 36  1  0     0  0
 13 37  1  0     0  0
 13 38  1  0     0  0
 13 39  1  0     0  0
 15 22  2  0     0  0
 15 40  1  0     0  0
 16 25  2  0     0  0
 16 26  1  0     0  0
 17 18  2  0     0  0
 17 27  1  0     0  0
 18 28  1  0     0  0
 20 24  1  0     0  0
 21 24  1  0     0  0
 21 27  2  0     0  0
 23 25  1  0     0  0
 23 29  2  0     0  0
 24 28  2  0     0  0
 26 30  2  0     0  0
 29 30  1  0     0  0
 31 40  1  0     0  0
 33 41  1  0     0  0
 35 37  1  0     0  0
 36 38  1  0     0  0
 39 41  1  0     0  0
M  END
> <standard_type>
pIC50

> <# Confs.>
25

> <canonical_smiles>
FC1=CC(NC(CC2=CN=C(NC(C3=C4)=NC=NC3=CC(OCCCN5CCN(CO)CC5)=C4OC)S2)=O)=CC=C1

> <standard_relation>
=

> <Publication_ID>
nan

> <predicted_activity_value>
8.080921907623926

> <actual_activity_value>
8.154901959985743

> <Compound>
2

> <standard_units>
nM

> hash
10397007601345888930

$$$$
2_
XXILIB    08252103493D 0   0.00000     0.00000

 41 45  0     1  0            999 V2000
   -7.2332   -0.4203    2.2023 S   0  0  0  0  0  2           0  0  0
   -8.6720   -7.9735    5.4377 F   0  0  0  0  0  1           0  0  0
    1.3665   -0.0000    0.0000 O   0  0  0  0  0  2           0  0  0
   -0.2265    0.0177    2.3956 O   0  0  0  0  0  2           0  0  0
  -10.8348   -3.5031    1.2007 O   0  0  0  0  0  2           0  0  0
    2.1641    8.2987   -1.8649 O   0  0  0  0  0  2           0  0  0
   -6.8922   -1.2910   -0.1929 N   0  0  0  0  0  3           0  0  0
   -4.7413   -0.1329   -1.6762 N   0  0  0  0  0  3           0  0  0
   -2.5341   -0.1745   -2.6127 N   0  0  0  0  0  3           0  0  0
   -5.0858    0.0071    0.6803 N   0  0  0  0  0  3           0  0  0
   -9.5654   -3.9120    3.1045 N   0  0  0  0  0  3           0  0  0
    3.0318    6.5860   -0.3711 N   0  0  2  0  0  3           0  0  0
    3.3440    3.8435    0.4972 N   0  0  2  0  0  3           0  0  0
   -6.3032   -0.5809    0.7509 C   0  0  0  0  0  4           0  0  0
   -8.4901   -1.3570    1.5128 C   0  0  0  0  0  4           0  0  0
   -9.2707   -7.3434    4.4175 C   0  0  0  0  0  4           0  0  0
    0.0000    0.0000    0.0000 C   0  0  0  0  0  4           0  0  0
   -0.7842   -0.0000    1.1485 C   0  0  0  0  0  4           0  0  0
   -3.8723   -0.1927   -2.6948 C   0  0  0  0  0  4           0  0  0
   -4.2160   -0.0351   -0.4296 C   0  0  0  0  0  4           0  0  0
   -2.0092   -0.0989   -1.3832 C   0  0  0  0  0  4           0  0  0
   -8.1294   -1.7265    0.2349 C   0  0  0  0  0  4           0  0  0
   -9.7428   -5.3034    3.2169 C   0  0  0  0  0  4           0  0  0
   -2.8125   -0.0368   -0.2252 C   0  0  0  0  0  4           0  0  0
   -9.1216   -5.9649    4.2815 C   0  0  0  0  0  4           0  0  0
  -10.0302   -8.0775    3.5125 C   0  0  0  0  0  4           0  0  0
   -0.6223   -0.0813   -1.2484 C   0  0  0  0  0  4           0  0  0
   -2.1764    0.0066    1.0400 C   0  0  0  0  0  4           0  0  0
  -10.5117   -6.0370    2.3031 C   0  0  0  0  0  4           0  0  0
  -10.6523   -7.4200    2.4539 C   0  0  0  0  0  4           0  0  0
  -10.1091   -3.1124    2.1145 C   0  0  0  0  0  4           0  0  0
    2.3590    7.8742   -0.5178 C   0  0  0  0  0  4           0  0  0
    1.9797    1.1167    0.6447 C   0  0  0  0  0  4           0  0  0
    0.0385   -1.2629    2.9630 C   0  0  0  0  0  4           0  0  0
    2.2858    5.4999   -1.0133 C   0  0  0  0  0  4           0  0  0
    3.3025    6.2637    1.0331 C   0  0  0  0  0  4           0  0  0
    3.0607    4.1820   -0.9061 C   0  0  0  0  0  4           0  0  0
    4.0760    4.9444    1.1438 C   0  0  0  0  0  4           0  0  0
    4.0809    2.5783    0.5762 C   0  0  0  0  0  4           0  0  0
   -9.7372   -1.6547    2.2634 C   0  0  0  0  0  4           0  0  0
    3.3185    1.3961   -0.0268 C   0  0  0  0  0  4           0  0  0
  1 14  1  0     0  0
  1 15  1  0     0  0
  2 16  1  0     0  0
  3 17  1  0     0  0
  3 33  1  0     0  0
  4 18  1  0     0  0
  4 34  1  0     0  0
  5 31  2  0     0  0
  6 32  1  0     0  0
  7 14  2  0     0  0
  7 22  1  0     0  0
  8 19  1  0     0  0
  8 20  2  0     0  0
  9 19  2  0     0  0
  9 21  1  0     0  0
 10 14  1  0     0  0
 10 20  1  0     0  0
 11 23  1  0     0  0
 11 31  1  0     0  0
 12 32  1  0     0  0
 12 35  1  0     0  0
 12 36  1  0     0  0
 13 37  1  0     0  0
 13 38  1  0     0  0
 13 39  1  0     0  0
 15 22  2  0     0  0
 15 40  1  0     0  0
 16 25  2  0     0  0
 16 26  1  0     0  0
 17 18  2  0     0  0
 17 27  1  0     0  0
 18 28  1  0     0  0
 20 24  1  0     0  0
 21 24  1  0     0  0
 21 27  2  0     0  0
 23 25  1  0     0  0
 23 29  2  0     0  0
 24 28  2  0     0  0
 26 30  2  0     0  0
 29 30  1  0     0  0
 31 40  1  0     0  0
 33 41  1  0     0  0
 35 37  1  0     0  0
 36 38  1  0     0  0
 39 41  1  0     0  0
M  END
> <standard_type>
pIC50

> <# Confs.>
25

> <canonical_smiles>
FC1=CC(NC(CC2=CN=C(NC(C3=C4)=NC=NC3=CC(OCCCN5CCN(CO)CC5)=C4OC)S2)=O)=CC=C1

> <standard_relation>
=

> <Publication_ID>
nan

> <predicted_activity_value>
8.080921907623926

> <actual_activity_value>
8.154901959985743

> <Compound>
2

> <standard_units>
nM

> hash
10397007601345888930

$$$$
2_
XXILIB    08252103493D 0   0.00000     0.00000

 41 45  0     1  0            999 V2000
   -7.2332   -0.4203    2.2023 S   0  0  0  0  0  2           0  0  0
  -14.3587    3.4541    0.3448 F   0  0  0  0  0  1           0  0  0
    1.3665    0.0000   -0.0000 O   0  0  0  0  0  2           0  0  0
   -0.2265    0.0177    2.3956 O   0  0  0  0  0  2           0  0  0
  -11.4107   -2.3597    0.6972 O   0  0  0  0  0  2           0  0  0
    9.1047    6.0261   -1.7108 O   0  0  0  0  0  2           0  0  0
   -6.8922   -1.2910   -0.1929 N   0  0  0  0  0  3           0  0  0
   -4.7413   -0.1329   -1.6762 N   0  0  0  0  0  3           0  0  0
   -2.5341   -0.1745   -2.6127 N   0  0  0  0  0  3           0  0  0
   -5.0858    0.0071    0.6803 N   0  0  0  0  0  3           0  0  0
  -11.4350   -0.1535    1.4289 N   0  0  0  0  0  3           0  0  0
    7.2121    4.5058   -1.5546 N   0  0  2  0  0  3           0  0  0
    5.3665    2.8339   -0.0810 N   0  0  2  0  0  3           0  0  0
   -6.3032   -0.5809    0.7509 C   0  0  0  0  0  4           0  0  0
   -8.4901   -1.3570    1.5128 C   0  0  0  0  0  4           0  0  0
  -14.0132    2.1688    0.1861 C   0  0  0  0  0  4           0  0  0
    0.0000    0.0000    0.0000 C   0  0  0  0  0  4           0  0  0
   -0.7842   -0.0000    1.1485 C   0  0  0  0  0  4           0  0  0
   -3.8723   -0.1927   -2.6948 C   0  0  0  0  0  4           0  0  0
   -4.2160   -0.0351   -0.4296 C   0  0  0  0  0  4           0  0  0
   -2.0092   -0.0989   -1.3832 C   0  0  0  0  0  4           0  0  0
   -8.1294   -1.7265    0.2349 C   0  0  0  0  0  4           0  0  0
  -12.5485    0.3244    0.7133 C   0  0  0  0  0  4           0  0  0
   -2.8125   -0.0368   -0.2252 C   0  0  0  0  0  4           0  0  0
  -12.9113    1.6657    0.8742 C   0  0  0  0  0  4           0  0  0
  -14.7615    1.3604   -0.6631 C   0  0  0  0  0  4           0  0  0
   -0.6223   -0.0813   -1.2484 C   0  0  0  0  0  4           0  0  0
   -2.1764    0.0066    1.0400 C   0  0  0  0  0  4           0  0  0
  -13.2968   -0.4949   -0.1430 C   0  0  0  0  0  4           0  0  0
  -14.3996    0.0254   -0.8273 C   0  0  0  0  0  4           0  0  0
  -10.9476   -1.4478    1.3815 C   0  0  0  0  0  4           0  0  0
    8.4689    4.8529   -2.2131 C   0  0  0  0  0  4           0  0  0
    1.9797    1.1167    0.6447 C   0  0  0  0  0  4           0  0  0
    0.0385   -1.2629    2.9630 C   0  0  0  0  0  4           0  0  0
    7.3920    4.2626   -0.1203 C   0  0  0  0  0  4           0  0  0
    6.5554    3.3606   -2.1918 C   0  0  0  0  0  4           0  0  0
    6.0421    3.9795    0.5478 C   0  0  0  0  0  4           0  0  0
    5.2053    3.0734   -1.5241 C   0  0  0  0  0  4           0  0  0
    4.0809    2.5783    0.5762 C   0  0  0  0  0  4           0  0  0
   -9.7372   -1.6547    2.2634 C   0  0  0  0  0  4           0  0  0
    3.3185    1.3961   -0.0268 C   0  0  0  0  0  4           0  0  0
  1 14  1  0     0  0
  1 15  1  0     0  0
  2 16  1  0     0  0
  3 17  1  0     0  0
  3 33  1  0     0  0
  4 18  1  0     0  0
  4 34  1  0     0  0
  5 31  2  0     0  0
  6 32  1  0     0  0
  7 14  2  0     0  0
  7 22  1  0     0  0
  8 19  1  0     0  0
  8 20  2  0     0  0
  9 19  2  0     0  0
  9 21  1  0     0  0
 10 14  1  0     0  0
 10 20  1  0     0  0
 11 23  1  0     0  0
 11 31  1  0     0  0
 12 32  1  0     0  0
 12 35  1  0     0  0
 12 36  1  0     0  0
 13 37  1  0     0  0
 13 38  1  0     0  0
 13 39  1  0     0  0
 15 22  2  0     0  0
 15 40  1  0     0  0
 16 25  2  0     0  0
 16 26  1  0     0  0
 17 18  2  0     0  0
 17 27  1  0     0  0
 18 28  1  0     0  0
 20 24  1  0     0  0
 21 24  1  0     0  0
 21 27  2  0     0  0
 23 25  1  0     0  0
 23 29  2  0     0  0
 24 28  2  0     0  0
 26 30  2  0     0  0
 29 30  1  0     0  0
 31 40  1  0     0  0
 33 41  1  0     0  0
 35 37  1  0     0  0
 36 38  1  0     0  0
 39 41  1  0     0  0
M  END
> <standard_type>
pIC50

> <# Confs.>
25

> <canonical_smiles>
FC1=CC(NC(CC2=CN=C(NC(C3=C4)=NC=NC3=CC(OCCCN5CCN(CO)CC5)=C4OC)S2)=O)=CC=C1

> <standard_relation>
=

> <Publication_ID>
nan

> <predicted_activity_value>
8.080921907623926

> <actual_activity_value>
8.154901959985743

> <Compound>
2

> <standard_units>
nM

> hash
10397007601345888930

$$$$
2_
XXILIB    08252103493D 0   0.00000     0.00000

 41 45  0     1  0            999 V2000
   -7.2332   -0.4203    2.2023 S   0  0  0  0  0  2           0  0  0
  -11.9157    4.6369    4.8730 F   0  0  0  0  0  1           0  0  0
    1.3665    0.0000   -0.0000 O   0  0  0  0  0  2           0  0  0
   -0.2265    0.0177    2.3956 O   0  0  0  0  0  2           0  0  0
  -11.5799   -0.6700    1.0863 O   0  0  0  0  0  2           0  0  0
    9.1047    6.0261   -1.7108 O   0  0  0  0  0  2           0  0  0
   -6.8922   -1.2910   -0.1929 N   0  0  0  0  0  3           0  0  0
   -4.7413   -0.1329   -1.6762 N   0  0  0  0  0  3           0  0  0
   -2.5341   -0.1745   -2.6127 N   0  0  0  0  0  3           0  0  0
   -5.0858    0.0071    0.6803 N   0  0  0  0  0  3           0  0  0
  -10.6925    0.4674    2.9089 N   0  0  0  0  0  3           0  0  0
    7.2121    4.5058   -1.5546 N   0  0  2  0  0  3           0  0  0
    5.3665    2.8339   -0.0810 N   0  0  2  0  0  3           0  0  0
   -6.3032   -0.5809    0.7509 C   0  0  0  0  0  4           0  0  0
   -8.4901   -1.3570    1.5128 C   0  0  0  0  0  4           0  0  0
  -12.1253    3.7054    3.9323 C   0  0  0  0  0  4           0  0  0
    0.0000    0.0000    0.0000 C   0  0  0  0  0  4           0  0  0
   -0.7842   -0.0000    1.1485 C   0  0  0  0  0  4           0  0  0
   -3.8723   -0.1927   -2.6948 C   0  0  0  0  0  4           0  0  0
   -4.2160   -0.0351   -0.4296 C   0  0  0  0  0  4           0  0  0
   -2.0092   -0.0989   -1.3832 C   0  0  0  0  0  4           0  0  0
   -8.1294   -1.7265    0.2349 C   0  0  0  0  0  4           0  0  0
  -11.5279    1.5999    2.9149 C   0  0  0  0  0  4           0  0  0
   -2.8125   -0.0368   -0.2252 C   0  0  0  0  0  4           0  0  0
  -11.3112    2.5755    3.8936 C   0  0  0  0  0  4           0  0  0
  -13.1524    3.8839    3.0114 C   0  0  0  0  0  4           0  0  0
   -0.6223   -0.0813   -1.2484 C   0  0  0  0  0  4           0  0  0
   -2.1764    0.0066    1.0400 C   0  0  0  0  0  4           0  0  0
  -12.5594    1.7751    1.9823 C   0  0  0  0  0  4           0  0  0
  -13.3673    2.9152    2.0340 C   0  0  0  0  0  4           0  0  0
  -10.7742   -0.5836    2.0124 C   0  0  0  0  0  4           0  0  0
    8.4689    4.8529   -2.2131 C   0  0  0  0  0  4           0  0  0
    1.9797    1.1167    0.6447 C   0  0  0  0  0  4           0  0  0
    0.0385   -1.2629    2.9630 C   0  0  0  0  0  4           0  0  0
    7.3920    4.2626   -0.1203 C   0  0  0  0  0  4           0  0  0
    6.5554    3.3606   -2.1918 C   0  0  0  0  0  4           0  0  0
    6.0421    3.9795    0.5478 C   0  0  0  0  0  4           0  0  0
    5.2053    3.0734   -1.5241 C   0  0  0  0  0  4           0  0  0
    4.0809    2.5783    0.5762 C   0  0  0  0  0  4           0  0  0
   -9.7372   -1.6547    2.2634 C   0  0  0  0  0  4           0  0  0
    3.3185    1.3961   -0.0268 C   0  0  0  0  0  4           0  0  0
  1 14  1  0     0  0
  1 15  1  0     0  0
  2 16  1  0     0  0
  3 17  1  0     0  0
  3 33  1  0     0  0
  4 18  1  0     0  0
  4 34  1  0     0  0
  5 31  2  0     0  0
  6 32  1  0     0  0
  7 14  2  0     0  0
  7 22  1  0     0  0
  8 19  1  0     0  0
  8 20  2  0     0  0
  9 19  2  0     0  0
  9 21  1  0     0  0
 10 14  1  0     0  0
 10 20  1  0     0  0
 11 23  1  0     0  0
 11 31  1  0     0  0
 12 32  1  0     0  0
 12 35  1  0     0  0
 12 36  1  0     0  0
 13 37  1  0     0  0
 13 38  1  0     0  0
 13 39  1  0     0  0
 15 22  2  0     0  0
 15 40  1  0     0  0
 16 25  2  0     0  0
 16 26  1  0     0  0
 17 18  2  0     0  0
 17 27  1  0     0  0
 18 28  1  0     0  0
 20 24  1  0     0  0
 21 24  1  0     0  0
 21 27  2  0     0  0
 23 25  1  0     0  0
 23 29  2  0     0  0
 24 28  2  0     0  0
 26 30  2  0     0  0
 29 30  1  0     0  0
 31 40  1  0     0  0
 33 41  1  0     0  0
 35 37  1  0     0  0
 36 38  1  0     0  0
 39 41  1  0     0  0
M  END
> <standard_type>
pIC50

> <# Confs.>
25

> <canonical_smiles>
FC1=CC(NC(CC2=CN=C(NC(C3=C4)=NC=NC3=CC(OCCCN5CCN(CO)CC5)=C4OC)S2)=O)=CC=C1

> <standard_relation>
=

> <Publication_ID>
nan

> <predicted_activity_value>
8.080921907623926

> <actual_activity_value>
8.154901959985743

> <Compound>
2

> <standard_units>
nM

> hash
10397007601345888930

$$$$
3_
XXILIB    08252103493D 0   0.00000     0.00000

 41 45  0     1  0            999 V2000
   -6.8804   -0.4089    3.1470 S   0  0  0  0  0  2           0  0  0
   -6.3554   -4.1809    9.4833 F   0  0  0  0  0  1           0  0  0
    1.3667   -0.0000    0.0000 O   0  0  0  0  0  2           0  0  0
    0.2177   -0.0024    2.3373 O   0  0  0  0  0  2           0  0  0
   -9.4492   -4.0304    3.7381 O   0  0  0  0  0  2           0  0  0
    4.9476    4.6871   -6.9610 O   0  0  0  0  0  2           0  0  0
   -6.8794   -1.1959    0.6986 N   0  0  0  0  0  3           0  0  0
   -4.9314   -0.0106   -1.0184 N   0  0  0  0  0  3           0  0  0
   -2.8735   -0.0286   -2.2467 N   0  0  0  0  0  3           0  0  0
   -4.9501    0.0475    1.3655 N   0  0  0  0  0  3           0  0  0
   -8.4272   -2.7939    5.4206 N   0  0  0  0  0  3           0  0  0
    3.9770    1.1686   -3.2730 N   0  0  1  0  0  3           0  0  0
   -6.1570   -0.5277    1.5781 C   0  0  0  0  0  4           0  0  0
   -8.2256   -1.3195    2.6072 C   0  0  0  0  0  4           0  0  0
   -6.9921   -4.5081    8.3501 C   0  0  0  0  0  4           0  0  0
    0.0000    0.0000    0.0000 C   0  0  0  0  0  4           0  0  0
   -0.6166    0.0000    1.2550 C   0  0  0  0  0  4           0  0  0
   -4.2104   -0.0337   -2.1473 C   0  0  0  0  0  4           0  0  0
   -4.2389    0.0348    0.1470 C   0  0  0  0  0  4           0  0  0
   -2.1847   -0.0091   -1.0980 C   0  0  0  0  0  4           0  0  0
   -8.0477   -1.6451    1.2796 C   0  0  0  0  0  4           0  0  0
   -8.0477   -3.8369    6.2866 C   0  0  0  0  0  4           0  0  0
   -2.8197    0.0123    0.1589 C   0  0  0  0  0  4           0  0  0
   -7.3838   -3.5011    7.4709 C   0  0  0  0  0  4           0  0  0
   -7.2499   -5.8464    8.0718 C   0  0  0  0  0  4           0  0  0
   -0.7927   -0.0125   -1.1550 C   0  0  0  0  0  4           0  0  0
   -2.0142    0.0046    1.3272 C   0  0  0  0  0  4           0  0  0
   -8.3123   -5.1833    6.0008 C   0  0  0  0  0  4           0  0  0
   -7.9142   -6.1823    6.8944 C   0  0  0  0  0  4           0  0  0
   -9.0883   -2.9552    4.2150 C   0  0  0  0  0  4           0  0  0
    1.9787    0.0000   -1.2901 C   0  0  0  0  0  4           0  0  0
    4.2973    4.7490   -5.6983 C   0  0  0  0  0  4           0  0  0
   -0.4295   -0.0023    3.6076 C   0  0  0  0  0  4           0  0  0
    4.2691    0.0000   -2.4392 C   0  0  0  0  0  4           0  0  0
    4.3204    2.4219   -2.5814 C   0  0  0  0  0  4           0  0  0
    4.6961    1.0654   -4.5527 C   0  0  0  0  0  4           0  0  0
   -9.3572   -1.6429    3.5137 C   0  0  0  0  0  4           0  0  0
    4.6916    3.5804   -4.8017 C   0  0  1  0  0  4           0  0  0
    3.4928    0.0000   -1.1205 C   0  0  0  0  0  4           0  0  0
    3.9902    3.6466   -3.4387 C   0  0  0  0  0  4           0  0  0
    4.3743    2.2427   -5.4751 C   0  0  0  0  0  4           0  0  0
  1 13  1  0     0  0
  1 14  1  0     0  0
  2 15  1  0     0  0
  3 16  1  0     0  0
  3 31  1  0     0  0
  4 17  1  0     0  0
  4 33  1  0     0  0
  5 30  2  0     0  0
  6 32  1  0     0  0
  7 13  2  0     0  0
  7 21  1  0     0  0
  8 18  1  0     0  0
  8 19  2  0     0  0
  9 18  2  0     0  0
  9 20  1  0     0  0
 10 13  1  0     0  0
 10 19  1  0     0  0
 11 22  1  0     0  0
 11 30  1  0     0  0
 12 34  1  0     0  0
 12 35  1  0     0  0
 12 36  1  0     0  0
 14 21  2  0     0  0
 14 37  1  0     0  0
 15 24  2  0     0  0
 15 25  1  0     0  0
 16 17  2  0     0  0
 16 26  1  0     0  0
 17 27  1  0     0  0
 19 23  1  0     0  0
 20 23  1  0     0  0
 20 26  2  0     0  0
 22 24  1  0     0  0
 22 28  2  0     0  0
 23 27  2  0     0  0
 25 29  2  0     0  0
 28 29  1  0     0  0
 30 37  1  0     0  0
 31 39  1  0     0  0
 32 38  1  0     0  0
 34 39  1  0     0  0
 35 40  1  0     0  0
 36 41  1  0     0  0
 38 40  1  0     0  0
 38 41  1  0     0  0
M  END
> <standard_type>
pIC50

> <# Confs.>
25

> <canonical_smiles>
FC1=CC(NC(CC2=CN=C(NC(C3=C4)=NC=NC3=CC(OCCCN5CCC(CO)CC5)=C4OC)S2)=O)=CC=C1

> <standard_relation>
=

> <Publication_ID>
nan

> <predicted_activity_value>
8.013228265733755

> <actual_activity_value>
8.154901959985743

> <Compound>
3

> <standard_units>
nM

> hash
6019588431572444200

$$$$
3_
XXILIB    08252103493D 0   0.00000     0.00000

 41 45  0     1  0            999 V2000
   -6.8804   -0.4089    3.1470 S   0  0  0  0  0  2           0  0  0
   -7.8365   -8.0699    6.2468 F   0  0  0  0  0  1           0  0  0
    1.3667   -0.0000    0.0000 O   0  0  0  0  0  2           0  0  0
    0.2177   -0.0024    2.3373 O   0  0  0  0  0  2           0  0  0
  -10.5800   -3.4586    2.5304 O   0  0  0  0  0  2           0  0  0
    4.9476    4.6871   -6.9610 O   0  0  0  0  0  2           0  0  0
   -6.8794   -1.1959    0.6986 N   0  0  0  0  0  3           0  0  0
   -4.9314   -0.0106   -1.0184 N   0  0  0  0  0  3           0  0  0
   -2.8735   -0.0286   -2.2467 N   0  0  0  0  0  3           0  0  0
   -4.9501    0.0475    1.3655 N   0  0  0  0  0  3           0  0  0
   -9.0601   -3.9301    4.2251 N   0  0  0  0  0  3           0  0  0
    3.9770    1.1686   -3.2730 N   0  0  1  0  0  3           0  0  0
   -6.1570   -0.5277    1.5781 C   0  0  0  0  0  4           0  0  0
   -8.2256   -1.3195    2.6072 C   0  0  0  0  0  4           0  0  0
   -8.5722   -7.4075    5.3430 C   0  0  0  0  0  4           0  0  0
    0.0000    0.0000    0.0000 C   0  0  0  0  0  4           0  0  0
   -0.6166    0.0000    1.2550 C   0  0  0  0  0  4           0  0  0
   -4.2104   -0.0337   -2.1473 C   0  0  0  0  0  4           0  0  0
   -4.2389    0.0348    0.1470 C   0  0  0  0  0  4           0  0  0
   -2.1847   -0.0091   -1.0980 C   0  0  0  0  0  4           0  0  0
   -8.0477   -1.6451    1.2796 C   0  0  0  0  0  4           0  0  0
   -9.2126   -5.3277    4.3006 C   0  0  0  0  0  4           0  0  0
   -2.8197    0.0123    0.1589 C   0  0  0  0  0  4           0  0  0
   -8.4480   -6.0237    5.2423 C   0  0  0  0  0  4           0  0  0
   -9.4457   -8.1130    4.5220 C   0  0  0  0  0  4           0  0  0
   -0.7927   -0.0125   -1.1550 C   0  0  0  0  0  4           0  0  0
   -2.0142    0.0046    1.3272 C   0  0  0  0  0  4           0  0  0
  -10.0961   -6.0320    3.4713 C   0  0  0  0  0  4           0  0  0
  -10.2105   -7.4208    3.5858 C   0  0  0  0  0  4           0  0  0
   -9.7388   -3.0971    3.3523 C   0  0  0  0  0  4           0  0  0
    1.9787    0.0000   -1.2901 C   0  0  0  0  0  4           0  0  0
    4.2973    4.7490   -5.6983 C   0  0  0  0  0  4           0  0  0
   -0.4295   -0.0023    3.6076 C   0  0  0  0  0  4           0  0  0
    4.2691    0.0000   -2.4392 C   0  0  0  0  0  4           0  0  0
    4.3204    2.4219   -2.5814 C   0  0  0  0  0  4           0  0  0
    4.6961    1.0654   -4.5527 C   0  0  0  0  0  4           0  0  0
   -9.3572   -1.6429    3.5137 C   0  0  0  0  0  4           0  0  0
    4.6916    3.5804   -4.8017 C   0  0  1  0  0  4           0  0  0
    3.4928    0.0000   -1.1205 C   0  0  0  0  0  4           0  0  0
    3.9902    3.6466   -3.4387 C   0  0  0  0  0  4           0  0  0
    4.3743    2.2427   -5.4751 C   0  0  0  0  0  4           0  0  0
  1 13  1  0     0  0
  1 14  1  0     0  0
  2 15  1  0     0  0
  3 16  1  0     0  0
  3 31  1  0     0  0
  4 17  1  0     0  0
  4 33  1  0     0  0
  5 30  2  0     0  0
  6 32  1  0     0  0
  7 13  2  0     0  0
  7 21  1  0     0  0
  8 18  1  0     0  0
  8 19  2  0     0  0
  9 18  2  0     0  0
  9 20  1  0     0  0
 10 13  1  0     0  0
 10 19  1  0     0  0
 11 22  1  0     0  0
 11 30  1  0     0  0
 12 34  1  0     0  0
 12 35  1  0     0  0
 12 36  1  0     0  0
 14 21  2  0     0  0
 14 37  1  0     0  0
 15 24  2  0     0  0
 15 25  1  0     0  0
 16 17  2  0     0  0
 16 26  1  0     0  0
 17 27  1  0     0  0
 19 23  1  0     0  0
 20 23  1  0     0  0
 20 26  2  0     0  0
 22 24  1  0     0  0
 22 28  2  0     0  0
 23 27  2  0     0  0
 25 29  2  0     0  0
 28 29  1  0     0  0
 30 37  1  0     0  0
 31 39  1  0     0  0
 32 38  1  0     0  0
 34 39  1  0     0  0
 35 40  1  0     0  0
 36 41  1  0     0  0
 38 40  1  0     0  0
 38 41  1  0     0  0
M  END
> <standard_type>
pIC50

> <# Confs.>
25

> <canonical_smiles>
FC1=CC(NC(CC2=CN=C(NC(C3=C4)=NC=NC3=CC(OCCCN5CCC(CO)CC5)=C4OC)S2)=O)=CC=C1

> <standard_relation>
=

> <Publication_ID>
nan

> <predicted_activity_value>
8.013228265733755

> <actual_activity_value>
8.154901959985743

> <Compound>
3

> <standard_units>
nM

> hash
6019588431572444200

$$$$
3_
XXILIB    08252103493D 0   0.00000     0.00000

 41 45  0     1  0            999 V2000
   -6.8804   -0.4089    3.1470 S   0  0  0  0  0  2           0  0  0
  -14.1166    3.5667    2.3753 F   0  0  0  0  0  1           0  0  0
    1.3667   -0.0000    0.0000 O   0  0  0  0  0  2           0  0  0
    0.2177   -0.0024    2.3373 O   0  0  0  0  0  2           0  0  0
  -11.2240   -2.2799    2.1469 O   0  0  0  0  0  2           0  0  0
    4.9476    4.6871   -6.9610 O   0  0  0  0  0  2           0  0  0
   -6.8794   -1.1959    0.6986 N   0  0  0  0  0  3           0  0  0
   -4.9314   -0.0106   -1.0184 N   0  0  0  0  0  3           0  0  0
   -2.8735   -0.0286   -2.2467 N   0  0  0  0  0  3           0  0  0
   -4.9501    0.0475    1.3655 N   0  0  0  0  0  3           0  0  0
  -11.1290   -0.1021    2.9547 N   0  0  0  0  0  3           0  0  0
    3.9770    1.1686   -3.2730 N   0  0  1  0  0  3           0  0  0
   -6.1570   -0.5277    1.5781 C   0  0  0  0  0  4           0  0  0
   -8.2256   -1.3195    2.6072 C   0  0  0  0  0  4           0  0  0
  -13.8122    2.2849    2.1284 C   0  0  0  0  0  4           0  0  0
    0.0000    0.0000    0.0000 C   0  0  0  0  0  4           0  0  0
   -0.6166    0.0000    1.2550 C   0  0  0  0  0  4           0  0  0
   -4.2104   -0.0337   -2.1473 C   0  0  0  0  0  4           0  0  0
   -4.2389    0.0348    0.1470 C   0  0  0  0  0  4           0  0  0
   -2.1847   -0.0091   -1.0980 C   0  0  0  0  0  4           0  0  0
   -8.0477   -1.6451    1.2796 C   0  0  0  0  0  4           0  0  0
  -12.3190    0.4094    2.4031 C   0  0  0  0  0  4           0  0  0
   -2.8197    0.0123    0.1589 C   0  0  0  0  0  4           0  0  0
  -12.6412    1.7465    2.6570 C   0  0  0  0  0  4           0  0  0
  -14.6702    1.5154    1.3496 C   0  0  0  0  0  4           0  0  0
   -0.7927   -0.0125   -1.1550 C   0  0  0  0  0  4           0  0  0
   -2.0142    0.0046    1.3272 C   0  0  0  0  0  4           0  0  0
  -13.1782   -0.3713    1.6177 C   0  0  0  0  0  4           0  0  0
  -14.3490    0.1844    1.0930 C   0  0  0  0  0  4           0  0  0
  -10.6672   -1.3979    2.7995 C   0  0  0  0  0  4           0  0  0
    1.9787    0.0000   -1.2901 C   0  0  0  0  0  4           0  0  0
    4.2973    4.7490   -5.6983 C   0  0  0  0  0  4           0  0  0
   -0.4295   -0.0023    3.6076 C   0  0  0  0  0  4           0  0  0
    4.2691    0.0000   -2.4392 C   0  0  0  0  0  4           0  0  0
    4.3204    2.4219   -2.5814 C   0  0  0  0  0  4           0  0  0
    4.6961    1.0654   -4.5527 C   0  0  0  0  0  4           0  0  0
   -9.3572   -1.6429    3.5137 C   0  0  0  0  0  4           0  0  0
    4.6916    3.5804   -4.8017 C   0  0  1  0  0  4           0  0  0
    3.4928    0.0000   -1.1205 C   0  0  0  0  0  4           0  0  0
    3.9902    3.6466   -3.4387 C   0  0  0  0  0  4           0  0  0
    4.3743    2.2427   -5.4751 C   0  0  0  0  0  4           0  0  0
  1 13  1  0     0  0
  1 14  1  0     0  0
  2 15  1  0     0  0
  3 16  1  0     0  0
  3 31  1  0     0  0
  4 17  1  0     0  0
  4 33  1  0     0  0
  5 30  2  0     0  0
  6 32  1  0     0  0
  7 13  2  0     0  0
  7 21  1  0     0  0
  8 18  1  0     0  0
  8 19  2  0     0  0
  9 18  2  0     0  0
  9 20  1  0     0  0
 10 13  1  0     0  0
 10 19  1  0     0  0
 11 22  1  0     0  0
 11 30  1  0     0  0
 12 34  1  0     0  0
 12 35  1  0     0  0
 12 36  1  0     0  0
 14 21  2  0     0  0
 14 37  1  0     0  0
 15 24  2  0     0  0
 15 25  1  0     0  0
 16 17  2  0     0  0
 16 26  1  0     0  0
 17 27  1  0     0  0
 19 23  1  0     0  0
 20 23  1  0     0  0
 20 26  2  0     0  0
 22 24  1  0     0  0
 22 28  2  0     0  0
 23 27  2  0     0  0
 25 29  2  0     0  0
 28 29  1  0     0  0
 30 37  1  0     0  0
 31 39  1  0     0  0
 32 38  1  0     0  0
 34 39  1  0     0  0
 35 40  1  0     0  0
 36 41  1  0     0  0
 38 40  1  0     0  0
 38 41  1  0     0  0
M  END
> <standard_type>
pIC50

> <# Confs.>
25

> <canonical_smiles>
FC1=CC(NC(CC2=CN=C(NC(C3=C4)=NC=NC3=CC(OCCCN5CCC(CO)CC5)=C4OC)S2)=O)=CC=C1

> <standard_relation>
=

> <Publication_ID>
nan

> <predicted_activity_value>
8.013228265733755

> <actual_activity_value>
8.154901959985743

> <Compound>
3

> <standard_units>
nM

> hash
6019588431572444200

$$$$
3_
XXILIB    08252103493D 0   0.00000     0.00000

 41 45  0     1  0            999 V2000
   -6.8804   -0.4089    3.1470 S   0  0  0  0  0  2           0  0  0
  -11.0510    4.5930    6.5686 F   0  0  0  0  0  1           0  0  0
    1.3667   -0.0000    0.0000 O   0  0  0  0  0  2           0  0  0
    0.2177   -0.0024    2.3373 O   0  0  0  0  0  2           0  0  0
  -11.3247   -0.5980    2.6214 O   0  0  0  0  0  2           0  0  0
    4.9476    4.6871   -6.9610 O   0  0  0  0  0  2           0  0  0
   -6.8794   -1.1959    0.6986 N   0  0  0  0  0  3           0  0  0
   -4.9314   -0.0106   -1.0184 N   0  0  0  0  0  3           0  0  0
   -2.8735   -0.0286   -2.2467 N   0  0  0  0  0  3           0  0  0
   -4.9501    0.0475    1.3655 N   0  0  0  0  0  3           0  0  0
  -10.1814    0.4693    4.3414 N   0  0  0  0  0  3           0  0  0
    3.9770    1.1686   -3.2730 N   0  0  1  0  0  3           0  0  0
   -6.1570   -0.5277    1.5781 C   0  0  0  0  0  4           0  0  0
   -8.2256   -1.3195    2.6072 C   0  0  0  0  0  4           0  0  0
  -11.4036    3.6949    5.6382 C   0  0  0  0  0  4           0  0  0
    0.0000    0.0000    0.0000 C   0  0  0  0  0  4           0  0  0
   -0.6166    0.0000    1.2550 C   0  0  0  0  0  4           0  0  0
   -4.2104   -0.0337   -2.1473 C   0  0  0  0  0  4           0  0  0
   -4.2389    0.0348    0.1470 C   0  0  0  0  0  4           0  0  0
   -2.1847   -0.0091   -1.0980 C   0  0  0  0  0  4           0  0  0
   -8.0477   -1.6451    1.2796 C   0  0  0  0  0  4           0  0  0
  -10.9895    1.6123    4.4920 C   0  0  0  0  0  4           0  0  0
   -2.8197    0.0123    0.1589 C   0  0  0  0  0  4           0  0  0
  -10.6257    2.5530    5.4609 C   0  0  0  0  0  4           0  0  0
  -12.5394    3.9184    4.8670 C   0  0  0  0  0  4           0  0  0
   -0.7927   -0.0125   -1.1550 C   0  0  0  0  0  4           0  0  0
   -2.0142    0.0046    1.3272 C   0  0  0  0  0  4           0  0  0
  -12.1318    1.8320    3.7102 C   0  0  0  0  0  4           0  0  0
  -12.9012    2.9841    3.8992 C   0  0  0  0  0  4           0  0  0
  -10.4013   -0.5522    3.4333 C   0  0  0  0  0  4           0  0  0
    1.9787    0.0000   -1.2901 C   0  0  0  0  0  4           0  0  0
    4.2973    4.7490   -5.6983 C   0  0  0  0  0  4           0  0  0
   -0.4295   -0.0023    3.6076 C   0  0  0  0  0  4           0  0  0
    4.2691    0.0000   -2.4392 C   0  0  0  0  0  4           0  0  0
    4.3204    2.4219   -2.5814 C   0  0  0  0  0  4           0  0  0
    4.6961    1.0654   -4.5527 C   0  0  0  0  0  4           0  0  0
   -9.3572   -1.6429    3.5137 C   0  0  0  0  0  4           0  0  0
    4.6916    3.5804   -4.8017 C   0  0  1  0  0  4           0  0  0
    3.4928    0.0000   -1.1205 C   0  0  0  0  0  4           0  0  0
    3.9902    3.6466   -3.4387 C   0  0  0  0  0  4           0  0  0
    4.3743    2.2427   -5.4751 C   0  0  0  0  0  4           0  0  0
  1 13  1  0     0  0
  1 14  1  0     0  0
  2 15  1  0     0  0
  3 16  1  0     0  0
  3 31  1  0     0  0
  4 17  1  0     0  0
  4 33  1  0     0  0
  5 30  2  0     0  0
  6 32  1  0     0  0
  7 13  2  0     0  0
  7 21  1  0     0  0
  8 18  1  0     0  0
  8 19  2  0     0  0
  9 18  2  0     0  0
  9 20  1  0     0  0
 10 13  1  0     0  0
 10 19  1  0     0  0
 11 22  1  0     0  0
 11 30  1  0     0  0
 12 34  1  0     0  0
 12 35  1  0     0  0
 12 36  1  0     0  0
 14 21  2  0     0  0
 14 37  1  0     0  0
 15 24  2  0     0  0
 15 25  1  0     0  0
 16 17  2  0     0  0
 16 26  1  0     0  0
 17 27  1  0     0  0
 19 23  1  0     0  0
 20 23  1  0     0  0
 20 26  2  0     0  0
 22 24  1  0     0  0
 22 28  2  0     0  0
 23 27  2  0     0  0
 25 29  2  0     0  0
 28 29  1  0     0  0
 30 37  1  0     0  0
 31 39  1  0     0  0
 32 38  1  0     0  0
 34 39  1  0     0  0
 35 40  1  0     0  0
 36 41  1  0     0  0
 38 40  1  0     0  0
 38 41  1  0     0  0
M  END
> <standard_type>
pIC50

> <# Confs.>
25

> <canonical_smiles>
FC1=CC(NC(CC2=CN=C(NC(C3=C4)=NC=NC3=CC(OCCCN5CCC(CO)CC5)=C4OC)S2)=O)=CC=C1

> <standard_relation>
=

> <Publication_ID>
nan

> <predicted_activity_value>
8.013228265733755

> <actual_activity_value>
8.154901959985743

> <Compound>
3

> <standard_units>
nM

> hash
6019588431572444200

$$$$
3_
XXILIB    08252103493D 0   0.00000     0.00000

 41 45  0     1  0            999 V2000
   -6.8804   -0.4089    3.1470 S   0  0  0  0  0  2           0  0  0
   -6.3554   -4.1809    9.4833 F   0  0  0  0  0  1           0  0  0
    1.3667    0.0000    0.0000 O   0  0  0  0  0  2           0  0  0
    0.2177   -0.0024    2.3373 O   0  0  0  0  0  2           0  0  0
   -9.4492   -4.0304    3.7381 O   0  0  0  0  0  2           0  0  0
    2.7997    7.6143   -4.8183 O   0  0  0  0  0  2           0  0  0
   -6.8794   -1.1959    0.6986 N   0  0  0  0  0  3           0  0  0
   -4.9314   -0.0106   -1.0184 N   0  0  0  0  0  3           0  0  0
   -2.8735   -0.0286   -2.2467 N   0  0  0  0  0  3           0  0  0
   -4.9501    0.0475    1.3655 N   0  0  0  0  0  3           0  0  0
   -8.4272   -2.7939    5.4206 N   0  0  0  0  0  3           0  0  0
    3.3335    3.0793   -2.3540 N   0  0  1  0  0  3           0  0  0
   -6.1570   -0.5277    1.5781 C   0  0  0  0  0  4           0  0  0
   -8.2256   -1.3195    2.6072 C   0  0  0  0  0  4           0  0  0
   -6.9921   -4.5081    8.3501 C   0  0  0  0  0  4           0  0  0
    0.0000    0.0000    0.0000 C   0  0  0  0  0  4           0  0  0
   -0.6166    0.0000    1.2550 C   0  0  0  0  0  4           0  0  0
   -4.2104   -0.0337   -2.1473 C   0  0  0  0  0  4           0  0  0
   -4.2389    0.0348    0.1470 C   0  0  0  0  0  4           0  0  0
   -2.1847   -0.0091   -1.0980 C   0  0  0  0  0  4           0  0  0
   -8.0477   -1.6451    1.2796 C   0  0  0  0  0  4           0  0  0
   -8.0477   -3.8369    6.2866 C   0  0  0  0  0  4           0  0  0
   -2.8197    0.0123    0.1589 C   0  0  0  0  0  4           0  0  0
   -7.3838   -3.5011    7.4709 C   0  0  0  0  0  4           0  0  0
   -7.2499   -5.8464    8.0718 C   0  0  0  0  0  4           0  0  0
   -0.7927   -0.0125   -1.1550 C   0  0  0  0  0  4           0  0  0
   -2.0142    0.0046    1.3272 C   0  0  0  0  0  4           0  0  0
   -8.3123   -5.1833    6.0008 C   0  0  0  0  0  4           0  0  0
   -7.9142   -6.1823    6.8944 C   0  0  0  0  0  4           0  0  0
   -9.0883   -2.9552    4.2150 C   0  0  0  0  0  4           0  0  0
    1.9787    0.6451   -1.1173 C   0  0  0  0  0  4           0  0  0
    2.1271    7.0146   -3.7187 C   0  0  0  0  0  4           0  0  0
   -0.4295   -0.0023    3.6076 C   0  0  0  0  0  4           0  0  0
    4.0782    1.9476   -1.7966 C   0  0  0  0  0  4           0  0  0
    3.0372    4.0880   -1.3235 C   0  0  0  0  0  4           0  0  0
    4.0868    3.6775   -3.4675 C   0  0  0  0  0  4           0  0  0
   -9.3572   -1.6429    3.5137 C   0  0  0  0  0  4           0  0  0
    2.9597    5.9066   -3.0831 C   0  0  1  0  0  4           0  0  0
    3.3184    1.2254   -0.6818 C   0  0  0  0  0  4           0  0  0
    2.2344    5.2589   -1.8963 C   0  0  0  0  0  4           0  0  0
    3.3163    4.8311   -4.1124 C   0  0  0  0  0  4           0  0  0
  1 13  1  0     0  0
  1 14  1  0     0  0
  2 15  1  0     0  0
  3 16  1  0     0  0
  3 31  1  0     0  0
  4 17  1  0     0  0
  4 33  1  0     0  0
  5 30  2  0     0  0
  6 32  1  0     0  0
  7 13  2  0     0  0
  7 21  1  0     0  0
  8 18  1  0     0  0
  8 19  2  0     0  0
  9 18  2  0     0  0
  9 20  1  0     0  0
 10 13  1  0     0  0
 10 19  1  0     0  0
 11 22  1  0     0  0
 11 30  1  0     0  0
 12 34  1  0     0  0
 12 35  1  0     0  0
 12 36  1  0     0  0
 14 21  2  0     0  0
 14 37  1  0     0  0
 15 24  2  0     0  0
 15 25  1  0     0  0
 16 17  2  0     0  0
 16 26  1  0     0  0
 17 27  1  0     0  0
 19 23  1  0     0  0
 20 23  1  0     0  0
 20 26  2  0     0  0
 22 24  1  0     0  0
 22 28  2  0     0  0
 23 27  2  0     0  0
 25 29  2  0     0  0
 28 29  1  0     0  0
 30 37  1  0     0  0
 31 39  1  0     0  0
 32 38  1  0     0  0
 34 39  1  0     0  0
 35 40  1  0     0  0
 36 41  1  0     0  0
 38 40  1  0     0  0
 38 41  1  0     0  0
M  END
> <standard_type>
pIC50

> <# Confs.>
25

> <canonical_smiles>
FC1=CC(NC(CC2=CN=C(NC(C3=C4)=NC=NC3=CC(OCCCN5CCC(CO)CC5)=C4OC)S2)=O)=CC=C1

> <standard_relation>
=

> <Publication_ID>
nan

> <predicted_activity_value>
8.013228265733755

> <actual_activity_value>
8.154901959985743

> <Compound>
3

> <standard_units>
nM

> hash
6019588431572444200

$$$$
3_
XXILIB    08252103493D 0   0.00000     0.00000

 41 45  0     1  0            999 V2000
   -6.8804   -0.4089    3.1470 S   0  0  0  0  0  2           0  0  0
   -8.6283   -4.3157   10.1026 F   0  0  0  0  0  1           0  0  0
    1.3667   -0.0000    0.0000 O   0  0  0  0  0  2           0  0  0
    0.2177   -0.0024    2.3373 O   0  0  0  0  0  2           0  0  0
   -8.9290   -4.0029    3.5900 O   0  0  0  0  0  2           0  0  0
    4.9476    4.6871   -6.9610 O   0  0  0  0  0  2           0  0  0
   -6.8794   -1.1959    0.6986 N   0  0  0  0  0  3           0  0  0
   -4.9314   -0.0106   -1.0184 N   0  0  0  0  0  3           0  0  0
   -2.8735   -0.0286   -2.2467 N   0  0  0  0  0  3           0  0  0
   -4.9501    0.0475    1.3655 N   0  0  0  0  0  3           0  0  0
   -9.0636   -2.8318    5.5936 N   0  0  0  0  0  3           0  0  0
    3.9770    1.1686   -3.2730 N   0  0  1  0  0  3           0  0  0
   -6.1570   -0.5277    1.5781 C   0  0  0  0  0  4           0  0  0
   -8.2256   -1.3195    2.6072 C   0  0  0  0  0  4           0  0  0
   -8.6204   -4.6047    8.7937 C   0  0  0  0  0  4           0  0  0
    0.0000    0.0000    0.0000 C   0  0  0  0  0  4           0  0  0
   -0.6166    0.0000    1.2550 C   0  0  0  0  0  4           0  0  0
   -4.2104   -0.0337   -2.1473 C   0  0  0  0  0  4           0  0  0
   -4.2389    0.0348    0.1470 C   0  0  0  0  0  4           0  0  0
   -2.1847   -0.0091   -1.0980 C   0  0  0  0  0  4           0  0  0
   -8.0477   -1.6451    1.2796 C   0  0  0  0  0  4           0  0  0
   -8.8360   -3.8839    6.5010 C   0  0  0  0  0  4           0  0  0
   -2.8197    0.0123    0.1589 C   0  0  0  0  0  4           0  0  0
   -8.8439   -3.5881    7.8679 C   0  0  0  0  0  4           0  0  0
   -8.3891   -5.9134    8.3832 C   0  0  0  0  0  4           0  0  0
   -0.7927   -0.0125   -1.1550 C   0  0  0  0  0  4           0  0  0
   -2.0142    0.0046    1.3272 C   0  0  0  0  0  4           0  0  0
   -8.6054   -5.2008    6.0804 C   0  0  0  0  0  4           0  0  0
   -8.3844   -6.2104    7.0222 C   0  0  0  0  0  4           0  0  0
   -9.0883   -2.9552    4.2150 C   0  0  0  0  0  4           0  0  0
    1.9787    0.0000   -1.2901 C   0  0  0  0  0  4           0  0  0
    4.2973    4.7490   -5.6983 C   0  0  0  0  0  4           0  0  0
   -0.4295   -0.0023    3.6076 C   0  0  0  0  0  4           0  0  0
    4.2691    0.0000   -2.4392 C   0  0  0  0  0  4           0  0  0
    4.3204    2.4219   -2.5814 C   0  0  0  0  0  4           0  0  0
    4.6961    1.0654   -4.5527 C   0  0  0  0  0  4           0  0  0
   -9.3572   -1.6429    3.5137 C   0  0  0  0  0  4           0  0  0
    4.6916    3.5804   -4.8017 C   0  0  1  0  0  4           0  0  0
    3.4928    0.0000   -1.1205 C   0  0  0  0  0  4           0  0  0
    3.9902    3.6466   -3.4387 C   0  0  0  0  0  4           0  0  0
    4.3743    2.2427   -5.4751 C   0  0  0  0  0  4           0  0  0
  1 13  1  0     0  0
  1 14  1  0     0  0
  2 15  1  0     0  0
  3 16  1  0     0  0
  3 31  1  0     0  0
  4 17  1  0     0  0
  4 33  1  0     0  0
  5 30  2  0     0  0
  6 32  1  0     0  0
  7 13  2  0     0  0
  7 21  1  0     0  0
  8 18  1  0     0  0
  8 19  2  0     0  0
  9 18  2  0     0  0
  9 20  1  0     0  0
 10 13  1  0     0  0
 10 19  1  0     0  0
 11 22  1  0     0  0
 11 30  1  0     0  0
 12 34  1  0     0  0
 12 35  1  0     0  0
 12 36  1  0     0  0
 14 21  2  0     0  0
 14 37  1  0     0  0
 15 24  2  0     0  0
 15 25  1  0     0  0
 16 17  2  0     0  0
 16 26  1  0     0  0
 17 27  1  0     0  0
 19 23  1  0     0  0
 20 23  1  0     0  0
 20 26  2  0     0  0
 22 24  1  0     0  0
 22 28  2  0     0  0
 23 27  2  0     0  0
 25 29  2  0     0  0
 28 29  1  0     0  0
 30 37  1  0     0  0
 31 39  1  0     0  0
 32 38  1  0     0  0
 34 39  1  0     0  0
 35 40  1  0     0  0
 36 41  1  0     0  0
 38 40  1  0     0  0
 38 41  1  0     0  0
M  END
> <standard_type>
pIC50

> <# Confs.>
25

> <canonical_smiles>
FC1=CC(NC(CC2=CN=C(NC(C3=C4)=NC=NC3=CC(OCCCN5CCC(CO)CC5)=C4OC)S2)=O)=CC=C1

> <standard_relation>
=

> <Publication_ID>
nan

> <predicted_activity_value>
8.013228265733755

> <actual_activity_value>
8.154901959985743

> <Compound>
3

> <standard_units>
nM

> hash
6019588431572444200

$$$$
3_
XXILIB    08252103493D 0   0.00000     0.00000

 41 45  0     1  0            999 V2000
   -6.8804   -0.4089    3.1470 S   0  0  0  0  0  2           0  0  0
  -12.9800    3.6191    0.3082 F   0  0  0  0  0  1           0  0  0
    1.3667   -0.0000    0.0000 O   0  0  0  0  0  2           0  0  0
    0.2177   -0.0024    2.3373 O   0  0  0  0  0  2           0  0  0
  -11.4858   -2.2989    2.6206 O   0  0  0  0  0  2           0  0  0
    4.6375    5.9995   -5.1139 O   0  0  0  0  0  2           0  0  0
   -6.8794   -1.1959    0.6986 N   0  0  0  0  0  3           0  0  0
   -4.9314   -0.0106   -1.0184 N   0  0  0  0  0  3           0  0  0
   -2.8735   -0.0286   -2.2467 N   0  0  0  0  0  3           0  0  0
   -4.9501    0.0475    1.3655 N   0  0  0  0  0  3           0  0  0
  -10.8108   -0.0878    2.3760 N   0  0  0  0  0  3           0  0  0
    3.9770    1.1686   -3.2730 N   0  0  1  0  0  3           0  0  0
   -6.1570   -0.5277    1.5781 C   0  0  0  0  0  4           0  0  0
   -8.2256   -1.3195    2.6072 C   0  0  0  0  0  4           0  0  0
  -12.9979    2.3225    0.6475 C   0  0  0  0  0  4           0  0  0
    0.0000    0.0000    0.0000 C   0  0  0  0  0  4           0  0  0
   -0.6166    0.0000    1.2550 C   0  0  0  0  0  4           0  0  0
   -4.2104   -0.0337   -2.1473 C   0  0  0  0  0  4           0  0  0
   -4.2389    0.0348    0.1470 C   0  0  0  0  0  4           0  0  0
   -2.1847   -0.0091   -1.0980 C   0  0  0  0  0  4           0  0  0
   -8.0477   -1.6451    1.2796 C   0  0  0  0  0  4           0  0  0
  -11.9249    0.4271    1.6862 C   0  0  0  0  0  4           0  0  0
   -2.8197    0.0123    0.1589 C   0  0  0  0  0  4           0  0  0
  -11.9112    1.7792    1.3291 C   0  0  0  0  0  4           0  0  0
  -14.1003    1.5427    0.3135 C   0  0  0  0  0  4           0  0  0
   -0.7927   -0.0125   -1.1550 C   0  0  0  0  0  4           0  0  0
   -2.0142    0.0046    1.3272 C   0  0  0  0  0  4           0  0  0
  -13.0317   -0.3648    1.3513 C   0  0  0  0  0  4           0  0  0
  -14.1139    0.1949    0.6654 C   0  0  0  0  0  4           0  0  0
  -10.6672   -1.3979    2.7995 C   0  0  0  0  0  4           0  0  0
    1.9787    0.0000   -1.2901 C   0  0  0  0  0  4           0  0  0
    4.2973    4.7490   -5.6983 C   0  0  0  0  0  4           0  0  0
   -0.4295   -0.0023    3.6076 C   0  0  0  0  0  4           0  0  0
    4.2691    0.0000   -2.4392 C   0  0  0  0  0  4           0  0  0
    4.3204    2.4219   -2.5814 C   0  0  0  0  0  4           0  0  0
    4.6961    1.0654   -4.5527 C   0  0  0  0  0  4           0  0  0
   -9.3572   -1.6429    3.5137 C   0  0  0  0  0  4           0  0  0
    4.6916    3.5804   -4.8017 C   0  0  1  0  0  4           0  0  0
    3.4928    0.0000   -1.1205 C   0  0  0  0  0  4           0  0  0
    3.9902    3.6466   -3.4387 C   0  0  0  0  0  4           0  0  0
    4.3743    2.2427   -5.4751 C   0  0  0  0  0  4           0  0  0
  1 13  1  0     0  0
  1 14  1  0     0  0
  2 15  1  0     0  0
  3 16  1  0     0  0
  3 31  1  0     0  0
  4 17  1  0     0  0
  4 33  1  0     0  0
  5 30  2  0     0  0
  6 32  1  0     0  0
  7 13  2  0     0  0
  7 21  1  0     0  0
  8 18  1  0     0  0
  8 19  2  0     0  0
  9 18  2  0     0  0
  9 20  1  0     0  0
 10 13  1  0     0  0
 10 19  1  0     0  0
 11 22  1  0     0  0
 11 30  1  0     0  0
 12 34  1  0     0  0
 12 35  1  0     0  0
 12 36  1  0     0  0
 14 21  2  0     0  0
 14 37  1  0     0  0
 15 24  2  0     0  0
 15 25  1  0     0  0
 16 17  2  0     0  0
 16 26  1  0     0  0
 17 27  1  0     0  0
 19 23  1  0     0  0
 20 23  1  0     0  0
 20 26  2  0     0  0
 22 24  1  0     0  0
 22 28  2  0     0  0
 23 27  2  0     0  0
 25 29  2  0     0  0
 28 29  1  0     0  0
 30 37  1  0     0  0
 31 39  1  0     0  0
 32 38  1  0     0  0
 34 39  1  0     0  0
 35 40  1  0     0  0
 36 41  1  0     0  0
 38 40  1  0     0  0
 38 41  1  0     0  0
M  END
> <standard_type>
pIC50

> <# Confs.>
25

> <canonical_smiles>
FC1=CC(NC(CC2=CN=C(NC(C3=C4)=NC=NC3=CC(OCCCN5CCC(CO)CC5)=C4OC)S2)=O)=CC=C1

> <standard_relation>
=

> <Publication_ID>
nan

> <predicted_activity_value>
8.013228265733755

> <actual_activity_value>
8.154901959985743

> <Compound>
3

> <standard_units>
nM

> hash
6019588431572444200

$$$$
3_
XXILIB    08252103493D 0   0.00000     0.00000

 41 45  0     1  0            999 V2000
   -6.8804   -0.4089    3.1470 S   0  0  0  0  0  2           0  0  0
   -6.3554   -4.1809    9.4833 F   0  0  0  0  0  1           0  0  0
    1.3667   -0.0000   -0.0000 O   0  0  0  0  0  2           0  0  0
    0.2177   -0.0024    2.3373 O   0  0  0  0  0  2           0  0  0
   -9.4492   -4.0304    3.7381 O   0  0  0  0  0  2           0  0  0
    7.0345    0.4208   -7.1377 O   0  0  0  0  0  2           0  0  0
   -6.8794   -1.1959    0.6986 N   0  0  0  0  0  3           0  0  0
   -4.9314   -0.0106   -1.0184 N   0  0  0  0  0  3           0  0  0
   -2.8735   -0.0286   -2.2467 N   0  0  0  0  0  3           0  0  0
   -4.9501    0.0475    1.3655 N   0  0  0  0  0  3           0  0  0
   -8.4272   -2.7939    5.4206 N   0  0  0  0  0  3           0  0  0
    4.3893   -1.0761   -2.9323 N   0  0  1  0  0  3           0  0  0
   -6.1570   -0.5277    1.5781 C   0  0  0  0  0  4           0  0  0
   -8.2256   -1.3195    2.6072 C   0  0  0  0  0  4           0  0  0
   -6.9921   -4.5081    8.3501 C   0  0  0  0  0  4           0  0  0
    0.0000    0.0000    0.0000 C   0  0  0  0  0  4           0  0  0
   -0.6166    0.0000    1.2550 C   0  0  0  0  0  4           0  0  0
   -4.2104   -0.0337   -2.1473 C   0  0  0  0  0  4           0  0  0
   -4.2389    0.0348    0.1470 C   0  0  0  0  0  4           0  0  0
   -2.1847   -0.0091   -1.0980 C   0  0  0  0  0  4           0  0  0
   -8.0477   -1.6451    1.2796 C   0  0  0  0  0  4           0  0  0
   -8.0477   -3.8369    6.2866 C   0  0  0  0  0  4           0  0  0
   -2.8197    0.0123    0.1589 C   0  0  0  0  0  4           0  0  0
   -7.3838   -3.5011    7.4709 C   0  0  0  0  0  4           0  0  0
   -7.2499   -5.8464    8.0718 C   0  0  0  0  0  4           0  0  0
   -0.7927   -0.0125   -1.1550 C   0  0  0  0  0  4           0  0  0
   -2.0142    0.0046    1.3272 C   0  0  0  0  0  4           0  0  0
   -8.3123   -5.1833    6.0008 C   0  0  0  0  0  4           0  0  0
   -7.9142   -6.1823    6.8944 C   0  0  0  0  0  4           0  0  0
   -9.0883   -2.9552    4.2150 C   0  0  0  0  0  4           0  0  0
    1.9787   -0.6451   -1.1173 C   0  0  0  0  0  4           0  0  0
    6.4178    1.1266   -6.0687 C   0  0  0  0  0  4           0  0  0
   -0.4295   -0.0023    3.6076 C   0  0  0  0  0  4           0  0  0
    4.0782   -1.9476   -1.7966 C   0  0  0  0  0  4           0  0  0
    5.2254    0.0639   -2.5219 C   0  0  0  0  0  4           0  0  0
    5.0495   -1.8510   -3.9948 C   0  0  0  0  0  4           0  0  0
   -9.3572   -1.6429    3.5137 C   0  0  0  0  0  4           0  0  0
    6.1946    0.2313   -4.8548 C   0  0  1  0  0  4           0  0  0
    3.3184   -1.2254   -0.6818 C   0  0  0  0  0  4           0  0  0
    5.5290    0.9924   -3.7008 C   0  0  0  0  0  4           0  0  0
    5.3426   -0.9864   -5.2222 C   0  0  0  0  0  4           0  0  0
  1 13  1  0     0  0
  1 14  1  0     0  0
  2 15  1  0     0  0
  3 16  1  0     0  0
  3 31  1  0     0  0
  4 17  1  0     0  0
  4 33  1  0     0  0
  5 30  2  0     0  0
  6 32  1  0     0  0
  7 13  2  0     0  0
  7 21  1  0     0  0
  8 18  1  0     0  0
  8 19  2  0     0  0
  9 18  2  0     0  0
  9 20  1  0     0  0
 10 13  1  0     0  0
 10 19  1  0     0  0
 11 22  1  0     0  0
 11 30  1  0     0  0
 12 34  1  0     0  0
 12 35  1  0     0  0
 12 36  1  0     0  0
 14 21  2  0     0  0
 14 37  1  0     0  0
 15 24  2  0     0  0
 15 25  1  0     0  0
 16 17  2  0     0  0
 16 26  1  0     0  0
 17 27  1  0     0  0
 19 23  1  0     0  0
 20 23  1  0     0  0
 20 26  2  0     0  0
 22 24  1  0     0  0
 22 28  2  0     0  0
 23 27  2  0     0  0
 25 29  2  0     0  0
 28 29  1  0     0  0
 30 37  1  0     0  0
 31 39  1  0     0  0
 32 38  1  0     0  0
 34 39  1  0     0  0
 35 40  1  0     0  0
 36 41  1  0     0  0
 38 40  1  0     0  0
 38 41  1  0     0  0
M  END
> <standard_type>
pIC50

> <# Confs.>
25

> <canonical_smiles>
FC1=CC(NC(CC2=CN=C(NC(C3=C4)=NC=NC3=CC(OCCCN5CCC(CO)CC5)=C4OC)S2)=O)=CC=C1

> <standard_relation>
=

> <Publication_ID>
nan

> <predicted_activity_value>
8.013228265733755

> <actual_activity_value>
8.154901959985743

> <Compound>
3

> <standard_units>
nM

> hash
6019588431572444200

$$$$
3_
XXILIB    08252103493D 0   0.00000     0.00000

 41 45  0     1  0            999 V2000
   -6.8804   -0.4089    3.1470 S   0  0  0  0  0  2           0  0  0
  -10.4007   -8.6612    2.6514 F   0  0  0  0  0  1           0  0  0
    1.3667   -0.0000    0.0000 O   0  0  0  0  0  2           0  0  0
    0.2177   -0.0024    2.3373 O   0  0  0  0  0  2           0  0  0
   -8.4969   -3.0043    5.2929 O   0  0  0  0  0  2           0  0  0
    4.9476    4.6871   -6.9610 O   0  0  0  0  0  2           0  0  0
   -6.8794   -1.1959    0.6986 N   0  0  0  0  0  3           0  0  0
   -4.9314   -0.0106   -1.0184 N   0  0  0  0  0  3           0  0  0
   -2.8735   -0.0286   -2.2467 N   0  0  0  0  0  3           0  0  0
   -4.9501    0.0475    1.3655 N   0  0  0  0  0  3           0  0  0
   -9.5584   -4.0482    3.5074 N   0  0  0  0  0  3           0  0  0
    3.9770    1.1686   -3.2730 N   0  0  1  0  0  3           0  0  0
   -6.1570   -0.5277    1.5781 C   0  0  0  0  0  4           0  0  0
   -8.2256   -1.3195    2.6072 C   0  0  0  0  0  4           0  0  0
   -9.8903   -7.7179    3.4555 C   0  0  0  0  0  4           0  0  0
    0.0000    0.0000    0.0000 C   0  0  0  0  0  4           0  0  0
   -0.6166    0.0000    1.2550 C   0  0  0  0  0  4           0  0  0
   -4.2104   -0.0337   -2.1473 C   0  0  0  0  0  4           0  0  0
   -4.2389    0.0348    0.1470 C   0  0  0  0  0  4           0  0  0
   -2.1847   -0.0091   -1.0980 C   0  0  0  0  0  4           0  0  0
   -8.0477   -1.6451    1.2796 C   0  0  0  0  0  4           0  0  0
   -9.4490   -5.3908    3.9165 C   0  0  0  0  0  4           0  0  0
   -2.8197    0.0123    0.1589 C   0  0  0  0  0  4           0  0  0
   -9.9792   -6.3791    3.0809 C   0  0  0  0  0  4           0  0  0
   -9.2815   -8.0921    4.6489 C   0  0  0  0  0  4           0  0  0
   -0.7927   -0.0125   -1.1550 C   0  0  0  0  0  4           0  0  0
   -2.0142    0.0046    1.3272 C   0  0  0  0  0  4           0  0  0
   -8.8327   -5.7609    5.1196 C   0  0  0  0  0  4           0  0  0
   -8.7498   -7.1091    5.4806 C   0  0  0  0  0  4           0  0  0
   -9.0883   -2.9552    4.2150 C   0  0  0  0  0  4           0  0  0
    1.9787    0.0000   -1.2901 C   0  0  0  0  0  4           0  0  0
    4.2973    4.7490   -5.6983 C   0  0  0  0  0  4           0  0  0
   -0.4295   -0.0023    3.6076 C   0  0  0  0  0  4           0  0  0
    4.2691    0.0000   -2.4392 C   0  0  0  0  0  4           0  0  0
    4.3204    2.4219   -2.5814 C   0  0  0  0  0  4           0  0  0
    4.6961    1.0654   -4.5527 C   0  0  0  0  0  4           0  0  0
   -9.3572   -1.6429    3.5137 C   0  0  0  0  0  4           0  0  0
    4.6916    3.5804   -4.8017 C   0  0  1  0  0  4           0  0  0
    3.4928    0.0000   -1.1205 C   0  0  0  0  0  4           0  0  0
    3.9902    3.6466   -3.4387 C   0  0  0  0  0  4           0  0  0
    4.3743    2.2427   -5.4751 C   0  0  0  0  0  4           0  0  0
  1 13  1  0     0  0
  1 14  1  0     0  0
  2 15  1  0     0  0
  3 16  1  0     0  0
  3 31  1  0     0  0
  4 17  1  0     0  0
  4 33  1  0     0  0
  5 30  2  0     0  0
  6 32  1  0     0  0
  7 13  2  0     0  0
  7 21  1  0     0  0
  8 18  1  0     0  0
  8 19  2  0     0  0
  9 18  2  0     0  0
  9 20  1  0     0  0
 10 13  1  0     0  0
 10 19  1  0     0  0
 11 22  1  0     0  0
 11 30  1  0     0  0
 12 34  1  0     0  0
 12 35  1  0     0  0
 12 36  1  0     0  0
 14 21  2  0     0  0
 14 37  1  0     0  0
 15 24  2  0     0  0
 15 25  1  0     0  0
 16 17  2  0     0  0
 16 26  1  0     0  0
 17 27  1  0     0  0
 19 23  1  0     0  0
 20 23  1  0     0  0
 20 26  2  0     0  0
 22 24  1  0     0  0
 22 28  2  0     0  0
 23 27  2  0     0  0
 25 29  2  0     0  0
 28 29  1  0     0  0
 30 37  1  0     0  0
 31 39  1  0     0  0
 32 38  1  0     0  0
 34 39  1  0     0  0
 35 40  1  0     0  0
 36 41  1  0     0  0
 38 40  1  0     0  0
 38 41  1  0     0  0
M  END
> <standard_type>
pIC50

> <# Confs.>
25

> <canonical_smiles>
FC1=CC(NC(CC2=CN=C(NC(C3=C4)=NC=NC3=CC(OCCCN5CCC(CO)CC5)=C4OC)S2)=O)=CC=C1

> <standard_relation>
=

> <Publication_ID>
nan

> <predicted_activity_value>
8.013228265733755

> <actual_activity_value>
8.154901959985743

> <Compound>
3

> <standard_units>
nM

> hash
6019588431572444200

$$$$
3_
XXILIB    08252103493D 0   0.00000     0.00000

 41 45  0     1  0            999 V2000
   -6.8804   -0.4089    3.1470 S   0  0  0  0  0  2           0  0  0
   -6.5692   -8.1819    4.2596 F   0  0  0  0  0  1           0  0  0
    1.3667   -0.0000    0.0000 O   0  0  0  0  0  2           0  0  0
    0.2177   -0.0024    2.3373 O   0  0  0  0  0  2           0  0  0
  -10.8651   -3.4348    2.9901 O   0  0  0  0  0  2           0  0  0
    4.6375    5.9995   -5.1139 O   0  0  0  0  0  2           0  0  0
   -6.8794   -1.1959    0.6986 N   0  0  0  0  0  3           0  0  0
   -4.9314   -0.0106   -1.0184 N   0  0  0  0  0  3           0  0  0
   -2.8735   -0.0286   -2.2467 N   0  0  0  0  0  3           0  0  0
   -4.9501    0.0475    1.3655 N   0  0  0  0  0  3           0  0  0
   -8.7051   -3.9616    3.6690 N   0  0  0  0  0  3           0  0  0
    3.9770    1.1686   -3.2730 N   0  0  1  0  0  3           0  0  0
   -6.1570   -0.5277    1.5781 C   0  0  0  0  0  4           0  0  0
   -8.2256   -1.3195    2.6072 C   0  0  0  0  0  4           0  0  0
   -7.6642   -7.4878    3.9193 C   0  0  0  0  0  4           0  0  0
    0.0000    0.0000    0.0000 C   0  0  0  0  0  4           0  0  0
   -0.6166    0.0000    1.2550 C   0  0  0  0  0  4           0  0  0
   -4.2104   -0.0337   -2.1473 C   0  0  0  0  0  4           0  0  0
   -4.2389    0.0348    0.1470 C   0  0  0  0  0  4           0  0  0
   -2.1847   -0.0091   -1.0980 C   0  0  0  0  0  4           0  0  0
   -8.0477   -1.6451    1.2796 C   0  0  0  0  0  4           0  0  0
   -8.7727   -5.3667    3.6117 C   0  0  0  0  0  4           0  0  0
   -2.8197    0.0123    0.1589 C   0  0  0  0  0  4           0  0  0
   -7.6332   -6.0959    3.9664 C   0  0  0  0  0  4           0  0  0
   -8.8112   -8.1689    3.5252 C   0  0  0  0  0  4           0  0  0
   -0.7927   -0.0125   -1.1550 C   0  0  0  0  0  4           0  0  0
   -2.0142    0.0046    1.3272 C   0  0  0  0  0  4           0  0  0
   -9.9324   -6.0465    3.2153 C   0  0  0  0  0  4           0  0  0
   -9.9481   -7.4441    3.1749 C   0  0  0  0  0  4           0  0  0
   -9.7388   -3.0971    3.3523 C   0  0  0  0  0  4           0  0  0
    1.9787    0.0000   -1.2901 C   0  0  0  0  0  4           0  0  0
    4.2973    4.7490   -5.6983 C   0  0  0  0  0  4           0  0  0
   -0.4295   -0.0023    3.6076 C   0  0  0  0  0  4           0  0  0
    4.2691    0.0000   -2.4392 C   0  0  0  0  0  4           0  0  0
    4.3204    2.4219   -2.5814 C   0  0  0  0  0  4           0  0  0
    4.6961    1.0654   -4.5527 C   0  0  0  0  0  4           0  0  0
   -9.3572   -1.6429    3.5137 C   0  0  0  0  0  4           0  0  0
    4.6916    3.5804   -4.8017 C   0  0  1  0  0  4           0  0  0
    3.4928    0.0000   -1.1205 C   0  0  0  0  0  4           0  0  0
    3.9902    3.6466   -3.4387 C   0  0  0  0  0  4           0  0  0
    4.3743    2.2427   -5.4751 C   0  0  0  0  0  4           0  0  0
  1 13  1  0     0  0
  1 14  1  0     0  0
  2 15  1  0     0  0
  3 16  1  0     0  0
  3 31  1  0     0  0
  4 17  1  0     0  0
  4 33  1  0     0  0
  5 30  2  0     0  0
  6 32  1  0     0  0
  7 13  2  0     0  0
  7 21  1  0     0  0
  8 18  1  0     0  0
  8 19  2  0     0  0
  9 18  2  0     0  0
  9 20  1  0     0  0
 10 13  1  0     0  0
 10 19  1  0     0  0
 11 22  1  0     0  0
 11 30  1  0     0  0
 12 34  1  0     0  0
 12 35  1  0     0  0
 12 36  1  0     0  0
 14 21  2  0     0  0
 14 37  1  0     0  0
 15 24  2  0     0  0
 15 25  1  0     0  0
 16 17  2  0     0  0
 16 26  1  0     0  0
 17 27  1  0     0  0
 19 23  1  0     0  0
 20 23  1  0     0  0
 20 26  2  0     0  0
 22 24  1  0     0  0
 22 28  2  0     0  0
 23 27  2  0     0  0
 25 29  2  0     0  0
 28 29  1  0     0  0
 30 37  1  0     0  0
 31 39  1  0     0  0
 32 38  1  0     0  0
 34 39  1  0     0  0
 35 40  1  0     0  0
 36 41  1  0     0  0
 38 40  1  0     0  0
 38 41  1  0     0  0
M  END
> <standard_type>
pIC50

> <# Confs.>
25

> <canonical_smiles>
FC1=CC(NC(CC2=CN=C(NC(C3=C4)=NC=NC3=CC(OCCCN5CCC(CO)CC5)=C4OC)S2)=O)=CC=C1

> <standard_relation>
=

> <Publication_ID>
nan

> <predicted_activity_value>
8.013228265733755

> <actual_activity_value>
8.154901959985743

> <Compound>
3

> <standard_units>
nM

> hash
6019588431572444200

$$$$
3_
XXILIB    08252103493D 0   0.00000     0.00000

 41 45  0     1  0            999 V2000
   -6.8804   -0.4089    3.1470 S   0  0  0  0  0  2           0  0  0
   -6.3554   -4.1809    9.4833 F   0  0  0  0  0  1           0  0  0
    1.3667   -0.0000    0.0000 O   0  0  0  0  0  2           0  0  0
    0.2177   -0.0024    2.3373 O   0  0  0  0  0  2           0  0  0
   -9.4492   -4.0304    3.7381 O   0  0  0  0  0  2           0  0  0
   10.0268   -2.3939    2.0055 O   0  0  0  0  0  2           0  0  0
   -6.8794   -1.1959    0.6986 N   0  0  0  0  0  3           0  0  0
   -4.9314   -0.0106   -1.0184 N   0  0  0  0  0  3           0  0  0
   -2.8735   -0.0286   -2.2467 N   0  0  0  0  0  3           0  0  0
   -4.9501    0.0475    1.3655 N   0  0  0  0  0  3           0  0  0
   -8.4272   -2.7939    5.4206 N   0  0  0  0  0  3           0  0  0
    5.4929   -1.1838   -0.2086 N   0  0  1  0  0  3           0  0  0
   -6.1570   -0.5277    1.5781 C   0  0  0  0  0  4           0  0  0
   -8.2256   -1.3195    2.6072 C   0  0  0  0  0  4           0  0  0
   -6.9921   -4.5081    8.3501 C   0  0  0  0  0  4           0  0  0
    0.0000    0.0000    0.0000 C   0  0  0  0  0  4           0  0  0
   -0.6166    0.0000    1.2550 C   0  0  0  0  0  4           0  0  0
   -4.2104   -0.0337   -2.1473 C   0  0  0  0  0  4           0  0  0
   -4.2389    0.0348    0.1470 C   0  0  0  0  0  4           0  0  0
   -2.1847   -0.0091   -1.0980 C   0  0  0  0  0  4           0  0  0
   -8.0477   -1.6451    1.2796 C   0  0  0  0  0  4           0  0  0
   -8.0477   -3.8369    6.2866 C   0  0  0  0  0  4           0  0  0
   -2.8197    0.0123    0.1589 C   0  0  0  0  0  4           0  0  0
   -7.3838   -3.5011    7.4709 C   0  0  0  0  0  4           0  0  0
   -7.2499   -5.8464    8.0718 C   0  0  0  0  0  4           0  0  0
   -0.7927   -0.0125   -1.1550 C   0  0  0  0  0  4           0  0  0
   -2.0142    0.0046    1.3272 C   0  0  0  0  0  4           0  0  0
   -8.3123   -5.1833    6.0008 C   0  0  0  0  0  4           0  0  0
   -7.9142   -6.1823    6.8944 C   0  0  0  0  0  4           0  0  0
   -9.0883   -2.9552    4.2150 C   0  0  0  0  0  4           0  0  0
    1.9787    0.0000   -1.2901 C   0  0  0  0  0  4           0  0  0
    9.5265   -1.2179    1.3829 C   0  0  0  0  0  4           0  0  0
   -0.4295   -0.0023    3.6076 C   0  0  0  0  0  4           0  0  0
    4.0357   -1.2098   -0.3568 C   0  0  0  0  0  4           0  0  0
    5.9375    0.0125    0.5252 C   0  0  0  0  0  4           0  0  0
    5.9518   -2.4090    0.4649 C   0  0  0  0  0  4           0  0  0
   -9.3572   -1.6429    3.5137 C   0  0  0  0  0  4           0  0  0
    8.0027   -1.2115    1.3291 C   0  0  1  0  0  4           0  0  0
    3.4928   -0.0000   -1.1205 C   0  0  0  0  0  4           0  0  0
    7.4621    0.0575    0.6573 C   0  0  0  0  0  4           0  0  0
    7.4761   -2.4445    0.5905 C   0  0  0  0  0  4           0  0  0
  1 13  1  0     0  0
  1 14  1  0     0  0
  2 15  1  0     0  0
  3 16  1  0     0  0
  3 31  1  0     0  0
  4 17  1  0     0  0
  4 33  1  0     0  0
  5 30  2  0     0  0
  6 32  1  0     0  0
  7 13  2  0     0  0
  7 21  1  0     0  0
  8 18  1  0     0  0
  8 19  2  0     0  0
  9 18  2  0     0  0
  9 20  1  0     0  0
 10 13  1  0     0  0
 10 19  1  0     0  0
 11 22  1  0     0  0
 11 30  1  0     0  0
 12 34  1  0     0  0
 12 35  1  0     0  0
 12 36  1  0     0  0
 14 21  2  0     0  0
 14 37  1  0     0  0
 15 24  2  0     0  0
 15 25  1  0     0  0
 16 17  2  0     0  0
 16 26  1  0     0  0
 17 27  1  0     0  0
 19 23  1  0     0  0
 20 23  1  0     0  0
 20 26  2  0     0  0
 22 24  1  0     0  0
 22 28  2  0     0  0
 23 27  2  0     0  0
 25 29  2  0     0  0
 28 29  1  0     0  0
 30 37  1  0     0  0
 31 39  1  0     0  0
 32 38  1  0     0  0
 34 39  1  0     0  0
 35 40  1  0     0  0
 36 41  1  0     0  0
 38 40  1  0     0  0
 38 41  1  0     0  0
M  END
> <standard_type>
pIC50

> <# Confs.>
25

> <canonical_smiles>
FC1=CC(NC(CC2=CN=C(NC(C3=C4)=NC=NC3=CC(OCCCN5CCC(CO)CC5)=C4OC)S2)=O)=CC=C1

> <standard_relation>
=

> <Publication_ID>
nan

> <predicted_activity_value>
8.013228265733755

> <actual_activity_value>
8.154901959985743

> <Compound>
3

> <standard_units>
nM

> hash
6019588431572444200

$$$$
3_
XXILIB    08252103493D 0   0.00000     0.00000

 41 45  0     1  0            999 V2000
   -6.8804   -0.4089    3.1470 S   0  0  0  0  0  2           0  0  0
   -6.3554   -4.1809    9.4833 F   0  0  0  0  0  1           0  0  0
    1.3667    0.0000    0.0000 O   0  0  0  0  0  2           0  0  0
    0.2177   -0.0024    2.3373 O   0  0  0  0  0  2           0  0  0
   -9.4492   -4.0304    3.7381 O   0  0  0  0  0  2           0  0  0
    4.9476    0.5787   -8.3719 O   0  0  0  0  0  2           0  0  0
   -6.8794   -1.1959    0.6986 N   0  0  0  0  0  3           0  0  0
   -4.9314   -0.0106   -1.0184 N   0  0  0  0  0  3           0  0  0
   -2.8735   -0.0286   -2.2467 N   0  0  0  0  0  3           0  0  0
   -4.9501    0.0475    1.3655 N   0  0  0  0  0  3           0  0  0
   -8.4272   -2.7939    5.4206 N   0  0  0  0  0  3           0  0  0
    3.9770   -0.6245   -3.4188 N   0  0  1  0  0  3           0  0  0
   -6.1570   -0.5277    1.5781 C   0  0  0  0  0  4           0  0  0
   -8.2256   -1.3195    2.6072 C   0  0  0  0  0  4           0  0  0
   -6.9921   -4.5081    8.3501 C   0  0  0  0  0  4           0  0  0
    0.0000    0.0000    0.0000 C   0  0  0  0  0  4           0  0  0
   -0.6166    0.0000    1.2550 C   0  0  0  0  0  4           0  0  0
   -4.2104   -0.0337   -2.1473 C   0  0  0  0  0  4           0  0  0
   -4.2389    0.0348    0.1470 C   0  0  0  0  0  4           0  0  0
   -2.1847   -0.0091   -1.0980 C   0  0  0  0  0  4           0  0  0
   -8.0477   -1.6451    1.2796 C   0  0  0  0  0  4           0  0  0
   -8.0477   -3.8369    6.2866 C   0  0  0  0  0  4           0  0  0
   -2.8197    0.0123    0.1589 C   0  0  0  0  0  4           0  0  0
   -7.3838   -3.5011    7.4709 C   0  0  0  0  0  4           0  0  0
   -7.2499   -5.8464    8.0718 C   0  0  0  0  0  4           0  0  0
   -0.7927   -0.0125   -1.1550 C   0  0  0  0  0  4           0  0  0
   -2.0142    0.0046    1.3272 C   0  0  0  0  0  4           0  0  0
   -8.3123   -5.1833    6.0008 C   0  0  0  0  0  4           0  0  0
   -7.9142   -6.1823    6.8944 C   0  0  0  0  0  4           0  0  0
   -9.0883   -2.9552    4.2150 C   0  0  0  0  0  4           0  0  0
    1.9787   -0.6451   -1.1173 C   0  0  0  0  0  4           0  0  0
    4.2973    1.2636   -7.3093 C   0  0  0  0  0  4           0  0  0
   -0.4295   -0.0023    3.6076 C   0  0  0  0  0  4           0  0  0
    4.2691   -1.2196   -2.1124 C   0  0  0  0  0  4           0  0  0
    4.3204    0.8067   -3.4465 C   0  0  0  0  0  4           0  0  0
    4.6961   -1.3537   -4.4755 C   0  0  0  0  0  4           0  0  0
   -9.3572   -1.6429    3.5137 C   0  0  0  0  0  4           0  0  0
    4.6916    0.6999   -5.9486 C   0  0  1  0  0  4           0  0  0
    3.4928   -0.5602   -0.9704 C   0  0  0  0  0  4           0  0  0
    3.9902    1.4386   -4.8013 C   0  0  0  0  0  4           0  0  0
    4.3743   -0.7953   -5.8629 C   0  0  0  0  0  4           0  0  0
  1 13  1  0     0  0
  1 14  1  0     0  0
  2 15  1  0     0  0
  3 16  1  0     0  0
  3 31  1  0     0  0
  4 17  1  0     0  0
  4 33  1  0     0  0
  5 30  2  0     0  0
  6 32  1  0     0  0
  7 13  2  0     0  0
  7 21  1  0     0  0
  8 18  1  0     0  0
  8 19  2  0     0  0
  9 18  2  0     0  0
  9 20  1  0     0  0
 10 13  1  0     0  0
 10 19  1  0     0  0
 11 22  1  0     0  0
 11 30  1  0     0  0
 12 34  1  0     0  0
 12 35  1  0     0  0
 12 36  1  0     0  0
 14 21  2  0     0  0
 14 37  1  0     0  0
 15 24  2  0     0  0
 15 25  1  0     0  0
 16 17  2  0     0  0
 16 26  1  0     0  0
 17 27  1  0     0  0
 19 23  1  0     0  0
 20 23  1  0     0  0
 20 26  2  0     0  0
 22 24  1  0     0  0
 22 28  2  0     0  0
 23 27  2  0     0  0
 25 29  2  0     0  0
 28 29  1  0     0  0
 30 37  1  0     0  0
 31 39  1  0     0  0
 32 38  1  0     0  0
 34 39  1  0     0  0
 35 40  1  0     0  0
 36 41  1  0     0  0
 38 40  1  0     0  0
 38 41  1  0     0  0
M  END
> <standard_type>
pIC50

> <# Confs.>
25

> <canonical_smiles>
FC1=CC(NC(CC2=CN=C(NC(C3=C4)=NC=NC3=CC(OCCCN5CCC(CO)CC5)=C4OC)S2)=O)=CC=C1

> <standard_relation>
=

> <Publication_ID>
nan

> <predicted_activity_value>
8.013228265733755

> <actual_activity_value>
8.154901959985743

> <Compound>
3

> <standard_units>
nM

> hash
6019588431572444200

$$$$
3_
XXILIB    08252103493D 0   0.00000     0.00000

 41 45  0     1  0            999 V2000
   -6.8804   -0.4089    3.1470 S   0  0  0  0  0  2           0  0  0
  -15.2667    0.0641   -0.1267 F   0  0  0  0  0  1           0  0  0
    1.3667   -0.0000    0.0000 O   0  0  0  0  0  2           0  0  0
    0.2177   -0.0024    2.3373 O   0  0  0  0  0  2           0  0  0
  -10.3724    0.4282    4.1763 O   0  0  0  0  0  2           0  0  0
    4.9476    4.6871   -6.9610 O   0  0  0  0  0  2           0  0  0
   -6.8794   -1.1959    0.6986 N   0  0  0  0  0  3           0  0  0
   -4.9314   -0.0106   -1.0184 N   0  0  0  0  0  3           0  0  0
   -2.8735   -0.0286   -2.2467 N   0  0  0  0  0  3           0  0  0
   -4.9501    0.0475    1.3655 N   0  0  0  0  0  3           0  0  0
  -11.3624   -0.7992    2.4681 N   0  0  0  0  0  3           0  0  0
    3.9770    1.1686   -3.2730 N   0  0  1  0  0  3           0  0  0
   -6.1570   -0.5277    1.5781 C   0  0  0  0  0  4           0  0  0
   -8.2256   -1.3195    2.6072 C   0  0  0  0  0  4           0  0  0
  -14.4239    0.4502    0.8414 C   0  0  0  0  0  4           0  0  0
    0.0000    0.0000    0.0000 C   0  0  0  0  0  4           0  0  0
   -0.6166    0.0000    1.2550 C   0  0  0  0  0  4           0  0  0
   -4.2104   -0.0337   -2.1473 C   0  0  0  0  0  4           0  0  0
   -4.2389    0.0348    0.1470 C   0  0  0  0  0  4           0  0  0
   -2.1847   -0.0091   -1.0980 C   0  0  0  0  0  4           0  0  0
   -8.0477   -1.6451    1.2796 C   0  0  0  0  0  4           0  0  0
  -12.4525    0.0407    2.1713 C   0  0  0  0  0  4           0  0  0
   -2.8197    0.0123    0.1589 C   0  0  0  0  0  4           0  0  0
  -13.3354   -0.3577    1.1625 C   0  0  0  0  0  4           0  0  0
  -14.6505    1.6500    1.5077 C   0  0  0  0  0  4           0  0  0
   -0.7927   -0.0125   -1.1550 C   0  0  0  0  0  4           0  0  0
   -2.0142    0.0046    1.3272 C   0  0  0  0  0  4           0  0  0
  -12.6759    1.2476    2.8480 C   0  0  0  0  0  4           0  0  0
  -13.7740    2.0466    2.5152 C   0  0  0  0  0  4           0  0  0
  -10.4013   -0.5522    3.4333 C   0  0  0  0  0  4           0  0  0
    1.9787    0.0000   -1.2901 C   0  0  0  0  0  4           0  0  0
    4.2973    4.7490   -5.6983 C   0  0  0  0  0  4           0  0  0
   -0.4295   -0.0023    3.6076 C   0  0  0  0  0  4           0  0  0
    4.2691    0.0000   -2.4392 C   0  0  0  0  0  4           0  0  0
    4.3204    2.4219   -2.5814 C   0  0  0  0  0  4           0  0  0
    4.6961    1.0654   -4.5527 C   0  0  0  0  0  4           0  0  0
   -9.3572   -1.6429    3.5137 C   0  0  0  0  0  4           0  0  0
    4.6916    3.5804   -4.8017 C   0  0  1  0  0  4           0  0  0
    3.4928    0.0000   -1.1205 C   0  0  0  0  0  4           0  0  0
    3.9902    3.6466   -3.4387 C   0  0  0  0  0  4           0  0  0
    4.3743    2.2427   -5.4751 C   0  0  0  0  0  4           0  0  0
  1 13  1  0     0  0
  1 14  1  0     0  0
  2 15  1  0     0  0
  3 16  1  0     0  0
  3 31  1  0     0  0
  4 17  1  0     0  0
  4 33  1  0     0  0
  5 30  2  0     0  0
  6 32  1  0     0  0
  7 13  2  0     0  0
  7 21  1  0     0  0
  8 18  1  0     0  0
  8 19  2  0     0  0
  9 18  2  0     0  0
  9 20  1  0     0  0
 10 13  1  0     0  0
 10 19  1  0     0  0
 11 22  1  0     0  0
 11 30  1  0     0  0
 12 34  1  0     0  0
 12 35  1  0     0  0
 12 36  1  0     0  0
 14 21  2  0     0  0
 14 37  1  0     0  0
 15 24  2  0     0  0
 15 25  1  0     0  0
 16 17  2  0     0  0
 16 26  1  0     0  0
 17 27  1  0     0  0
 19 23  1  0     0  0
 20 23  1  0     0  0
 20 26  2  0     0  0
 22 24  1  0     0  0
 22 28  2  0     0  0
 23 27  2  0     0  0
 25 29  2  0     0  0
 28 29  1  0     0  0
 30 37  1  0     0  0
 31 39  1  0     0  0
 32 38  1  0     0  0
 34 39  1  0     0  0
 35 40  1  0     0  0
 36 41  1  0     0  0
 38 40  1  0     0  0
 38 41  1  0     0  0
M  END
> <standard_type>
pIC50

> <# Confs.>
25

> <canonical_smiles>
FC1=CC(NC(CC2=CN=C(NC(C3=C4)=NC=NC3=CC(OCCCN5CCC(CO)CC5)=C4OC)S2)=O)=CC=C1

> <standard_relation>
=

> <Publication_ID>
nan

> <predicted_activity_value>
8.013228265733755

> <actual_activity_value>
8.154901959985743

> <Compound>
3

> <standard_units>
nM

> hash
6019588431572444200

$$$$
3_
XXILIB    08252103493D 0   0.00000     0.00000

 41 45  0     1  0            999 V2000
   -6.8804   -0.4089    3.1470 S   0  0  0  0  0  2           0  0  0
   -6.3554   -4.1809    9.4833 F   0  0  0  0  0  1           0  0  0
    1.3667   -0.0000    0.0000 O   0  0  0  0  0  2           0  0  0
    0.2177   -0.0024    2.3373 O   0  0  0  0  0  2           0  0  0
   -9.4492   -4.0304    3.7381 O   0  0  0  0  0  2           0  0  0
    4.9476    7.5396   -3.6848 O   0  0  0  0  0  2           0  0  0
   -6.8794   -1.1959    0.6986 N   0  0  0  0  0  3           0  0  0
   -4.9314   -0.0106   -1.0184 N   0  0  0  0  0  3           0  0  0
   -2.8735   -0.0286   -2.2467 N   0  0  0  0  0  3           0  0  0
   -4.9501    0.0475    1.3655 N   0  0  0  0  0  3           0  0  0
   -8.4272   -2.7939    5.4206 N   0  0  0  0  0  3           0  0  0
    3.9770    2.6485   -2.2502 N   0  0  1  0  0  3           0  0  0
   -6.1570   -0.5277    1.5781 C   0  0  0  0  0  4           0  0  0
   -8.2256   -1.3195    2.6072 C   0  0  0  0  0  4           0  0  0
   -6.9921   -4.5081    8.3501 C   0  0  0  0  0  4           0  0  0
    0.0000    0.0000    0.0000 C   0  0  0  0  0  4           0  0  0
   -0.6166    0.0000    1.2550 C   0  0  0  0  0  4           0  0  0
   -4.2104   -0.0337   -2.1473 C   0  0  0  0  0  4           0  0  0
   -4.2389    0.0348    0.1470 C   0  0  0  0  0  4           0  0  0
   -2.1847   -0.0091   -1.0980 C   0  0  0  0  0  4           0  0  0
   -8.0477   -1.6451    1.2796 C   0  0  0  0  0  4           0  0  0
   -8.0477   -3.8369    6.2866 C   0  0  0  0  0  4           0  0  0
   -2.8197    0.0123    0.1589 C   0  0  0  0  0  4           0  0  0
   -7.3838   -3.5011    7.4709 C   0  0  0  0  0  4           0  0  0
   -7.2499   -5.8464    8.0718 C   0  0  0  0  0  4           0  0  0
   -0.7927   -0.0125   -1.1550 C   0  0  0  0  0  4           0  0  0
   -2.0142    0.0046    1.3272 C   0  0  0  0  0  4           0  0  0
   -8.3123   -5.1833    6.0008 C   0  0  0  0  0  4           0  0  0
   -7.9142   -6.1823    6.8944 C   0  0  0  0  0  4           0  0  0
   -9.0883   -2.9552    4.2150 C   0  0  0  0  0  4           0  0  0
    1.9787    0.6451   -1.1173 C   0  0  0  0  0  4           0  0  0
    4.2973    6.9619   -2.5604 C   0  0  0  0  0  4           0  0  0
   -0.4295   -0.0023    3.6076 C   0  0  0  0  0  4           0  0  0
    4.2691    1.2196   -2.1124 C   0  0  0  0  0  4           0  0  0
    4.3204    3.3881   -1.0246 C   0  0  0  0  0  4           0  0  0
    4.6961    3.1991   -3.4101 C   0  0  0  0  0  4           0  0  0
   -9.3572   -1.6429    3.5137 C   0  0  0  0  0  4           0  0  0
    4.6916    5.5016   -2.3682 C   0  0  1  0  0  4           0  0  0
    3.4928    0.5602   -0.9704 C   0  0  0  0  0  4           0  0  0
    3.9902    4.8774   -1.1548 C   0  0  0  0  0  4           0  0  0
    4.3743    4.6798   -3.6202 C   0  0  0  0  0  4           0  0  0
  1 13  1  0     0  0
  1 14  1  0     0  0
  2 15  1  0     0  0
  3 16  1  0     0  0
  3 31  1  0     0  0
  4 17  1  0     0  0
  4 33  1  0     0  0
  5 30  2  0     0  0
  6 32  1  0     0  0
  7 13  2  0     0  0
  7 21  1  0     0  0
  8 18  1  0     0  0
  8 19  2  0     0  0
  9 18  2  0     0  0
  9 20  1  0     0  0
 10 13  1  0     0  0
 10 19  1  0     0  0
 11 22  1  0     0  0
 11 30  1  0     0  0
 12 34  1  0     0  0
 12 35  1  0     0  0
 12 36  1  0     0  0
 14 21  2  0     0  0
 14 37  1  0     0  0
 15 24  2  0     0  0
 15 25  1  0     0  0
 16 17  2  0     0  0
 16 26  1  0     0  0
 17 27  1  0     0  0
 19 23  1  0     0  0
 20 23  1  0     0  0
 20 26  2  0     0  0
 22 24  1  0     0  0
 22 28  2  0     0  0
 23 27  2  0     0  0
 25 29  2  0     0  0
 28 29  1  0     0  0
 30 37  1  0     0  0
 31 39  1  0     0  0
 32 38  1  0     0  0
 34 39  1  0     0  0
 35 40  1  0     0  0
 36 41  1  0     0  0
 38 40  1  0     0  0
 38 41  1  0     0  0
M  END
> <standard_type>
pIC50

> <# Confs.>
25

> <canonical_smiles>
FC1=CC(NC(CC2=CN=C(NC(C3=C4)=NC=NC3=CC(OCCCN5CCC(CO)CC5)=C4OC)S2)=O)=CC=C1

> <standard_relation>
=

> <Publication_ID>
nan

> <predicted_activity_value>
8.013228265733755

> <actual_activity_value>
8.154901959985743

> <Compound>
3

> <standard_units>
nM

> hash
6019588431572444200

$$$$
3_
XXILIB    08252103493D 0   0.00000     0.00000

 41 45  0     1  0            999 V2000
   -6.8804   -0.4089    3.1470 S   0  0  0  0  0  2           0  0  0
   -7.8365   -8.0699    6.2468 F   0  0  0  0  0  1           0  0  0
    1.3667    0.0000    0.0000 O   0  0  0  0  0  2           0  0  0
    0.2177   -0.0024    2.3373 O   0  0  0  0  0  2           0  0  0
  -10.5800   -3.4586    2.5304 O   0  0  0  0  0  2           0  0  0
    2.7997    7.6143   -4.8183 O   0  0  0  0  0  2           0  0  0
   -6.8794   -1.1959    0.6986 N   0  0  0  0  0  3           0  0  0
   -4.9314   -0.0106   -1.0184 N   0  0  0  0  0  3           0  0  0
   -2.8735   -0.0286   -2.2467 N   0  0  0  0  0  3           0  0  0
   -4.9501    0.0475    1.3655 N   0  0  0  0  0  3           0  0  0
   -9.0601   -3.9301    4.2251 N   0  0  0  0  0  3           0  0  0
    3.3335    3.0793   -2.3540 N   0  0  1  0  0  3           0  0  0
   -6.1570   -0.5277    1.5781 C   0  0  0  0  0  4           0  0  0
   -8.2256   -1.3195    2.6072 C   0  0  0  0  0  4           0  0  0
   -8.5722   -7.4075    5.3430 C   0  0  0  0  0  4           0  0  0
    0.0000    0.0000    0.0000 C   0  0  0  0  0  4           0  0  0
   -0.6166    0.0000    1.2550 C   0  0  0  0  0  4           0  0  0
   -4.2104   -0.0337   -2.1473 C   0  0  0  0  0  4           0  0  0
   -4.2389    0.0348    0.1470 C   0  0  0  0  0  4           0  0  0
   -2.1847   -0.0091   -1.0980 C   0  0  0  0  0  4           0  0  0
   -8.0477   -1.6451    1.2796 C   0  0  0  0  0  4           0  0  0
   -9.2126   -5.3277    4.3006 C   0  0  0  0  0  4           0  0  0
   -2.8197    0.0123    0.1589 C   0  0  0  0  0  4           0  0  0
   -8.4480   -6.0237    5.2423 C   0  0  0  0  0  4           0  0  0
   -9.4457   -8.1130    4.5220 C   0  0  0  0  0  4           0  0  0
   -0.7927   -0.0125   -1.1550 C   0  0  0  0  0  4           0  0  0
   -2.0142    0.0046    1.3272 C   0  0  0  0  0  4           0  0  0
  -10.0961   -6.0320    3.4713 C   0  0  0  0  0  4           0  0  0
  -10.2105   -7.4208    3.5858 C   0  0  0  0  0  4           0  0  0
   -9.7388   -3.0971    3.3523 C   0  0  0  0  0  4           0  0  0
    1.9787    0.6451   -1.1173 C   0  0  0  0  0  4           0  0  0
    2.1271    7.0146   -3.7187 C   0  0  0  0  0  4           0  0  0
   -0.4295   -0.0023    3.6076 C   0  0  0  0  0  4           0  0  0
    4.0782    1.9476   -1.7966 C   0  0  0  0  0  4           0  0  0
    3.0372    4.0880   -1.3235 C   0  0  0  0  0  4           0  0  0
    4.0868    3.6775   -3.4675 C   0  0  0  0  0  4           0  0  0
   -9.3572   -1.6429    3.5137 C   0  0  0  0  0  4           0  0  0
    2.9597    5.9066   -3.0831 C   0  0  1  0  0  4           0  0  0
    3.3184    1.2254   -0.6818 C   0  0  0  0  0  4           0  0  0
    2.2344    5.2589   -1.8963 C   0  0  0  0  0  4           0  0  0
    3.3163    4.8311   -4.1124 C   0  0  0  0  0  4           0  0  0
  1 13  1  0     0  0
  1 14  1  0     0  0
  2 15  1  0     0  0
  3 16  1  0     0  0
  3 31  1  0     0  0
  4 17  1  0     0  0
  4 33  1  0     0  0
  5 30  2  0     0  0
  6 32  1  0     0  0
  7 13  2  0     0  0
  7 21  1  0     0  0
  8 18  1  0     0  0
  8 19  2  0     0  0
  9 18  2  0     0  0
  9 20  1  0     0  0
 10 13  1  0     0  0
 10 19  1  0     0  0
 11 22  1  0     0  0
 11 30  1  0     0  0
 12 34  1  0     0  0
 12 35  1  0     0  0
 12 36  1  0     0  0
 14 21  2  0     0  0
 14 37  1  0     0  0
 15 24  2  0     0  0
 15 25  1  0     0  0
 16 17  2  0     0  0
 16 26  1  0     0  0
 17 27  1  0     0  0
 19 23  1  0     0  0
 20 23  1  0     0  0
 20 26  2  0     0  0
 22 24  1  0     0  0
 22 28  2  0     0  0
 23 27  2  0     0  0
 25 29  2  0     0  0
 28 29  1  0     0  0
 30 37  1  0     0  0
 31 39  1  0     0  0
 32 38  1  0     0  0
 34 39  1  0     0  0
 35 40  1  0     0  0
 36 41  1  0     0  0
 38 40  1  0     0  0
 38 41  1  0     0  0
M  END
> <standard_type>
pIC50

> <# Confs.>
25

> <canonical_smiles>
FC1=CC(NC(CC2=CN=C(NC(C3=C4)=NC=NC3=CC(OCCCN5CCC(CO)CC5)=C4OC)S2)=O)=CC=C1

> <standard_relation>
=

> <Publication_ID>
nan

> <predicted_activity_value>
8.013228265733755

> <actual_activity_value>
8.154901959985743

> <Compound>
3

> <standard_units>
nM

> hash
6019588431572444200

$$$$
3_
XXILIB    08252103493D 0   0.00000     0.00000

 41 45  0     1  0            999 V2000
   -6.8804   -0.4089    3.1470 S   0  0  0  0  0  2           0  0  0
  -14.1166    3.5667    2.3753 F   0  0  0  0  0  1           0  0  0
    1.3667    0.0000    0.0000 O   0  0  0  0  0  2           0  0  0
    0.2177   -0.0024    2.3373 O   0  0  0  0  0  2           0  0  0
  -11.2240   -2.2799    2.1469 O   0  0  0  0  0  2           0  0  0
    2.7997    7.6143   -4.8183 O   0  0  0  0  0  2           0  0  0
   -6.8794   -1.1959    0.6986 N   0  0  0  0  0  3           0  0  0
   -4.9314   -0.0106   -1.0184 N   0  0  0  0  0  3           0  0  0
   -2.8735   -0.0286   -2.2467 N   0  0  0  0  0  3           0  0  0
   -4.9501    0.0475    1.3655 N   0  0  0  0  0  3           0  0  0
  -11.1290   -0.1021    2.9547 N   0  0  0  0  0  3           0  0  0
    3.3335    3.0793   -2.3540 N   0  0  1  0  0  3           0  0  0
   -6.1570   -0.5277    1.5781 C   0  0  0  0  0  4           0  0  0
   -8.2256   -1.3195    2.6072 C   0  0  0  0  0  4           0  0  0
  -13.8122    2.2849    2.1284 C   0  0  0  0  0  4           0  0  0
    0.0000    0.0000    0.0000 C   0  0  0  0  0  4           0  0  0
   -0.6166    0.0000    1.2550 C   0  0  0  0  0  4           0  0  0
   -4.2104   -0.0337   -2.1473 C   0  0  0  0  0  4           0  0  0
   -4.2389    0.0348    0.1470 C   0  0  0  0  0  4           0  0  0
   -2.1847   -0.0091   -1.0980 C   0  0  0  0  0  4           0  0  0
   -8.0477   -1.6451    1.2796 C   0  0  0  0  0  4           0  0  0
  -12.3190    0.4094    2.4031 C   0  0  0  0  0  4           0  0  0
   -2.8197    0.0123    0.1589 C   0  0  0  0  0  4           0  0  0
  -12.6412    1.7465    2.6570 C   0  0  0  0  0  4           0  0  0
  -14.6702    1.5154    1.3496 C   0  0  0  0  0  4           0  0  0
   -0.7927   -0.0125   -1.1550 C   0  0  0  0  0  4           0  0  0
   -2.0142    0.0046    1.3272 C   0  0  0  0  0  4           0  0  0
  -13.1782   -0.3713    1.6177 C   0  0  0  0  0  4           0  0  0
  -14.3490    0.1844    1.0930 C   0  0  0  0  0  4           0  0  0
  -10.6672   -1.3979    2.7995 C   0  0  0  0  0  4           0  0  0
    1.9787    0.6451   -1.1173 C   0  0  0  0  0  4           0  0  0
    2.1271    7.0146   -3.7187 C   0  0  0  0  0  4           0  0  0
   -0.4295   -0.0023    3.6076 C   0  0  0  0  0  4           0  0  0
    4.0782    1.9476   -1.7966 C   0  0  0  0  0  4           0  0  0
    3.0372    4.0880   -1.3235 C   0  0  0  0  0  4           0  0  0
    4.0868    3.6775   -3.4675 C   0  0  0  0  0  4           0  0  0
   -9.3572   -1.6429    3.5137 C   0  0  0  0  0  4           0  0  0
    2.9597    5.9066   -3.0831 C   0  0  1  0  0  4           0  0  0
    3.3184    1.2254   -0.6818 C   0  0  0  0  0  4           0  0  0
    2.2344    5.2589   -1.8963 C   0  0  0  0  0  4           0  0  0
    3.3163    4.8311   -4.1124 C   0  0  0  0  0  4           0  0  0
  1 13  1  0     0  0
  1 14  1  0     0  0
  2 15  1  0     0  0
  3 16  1  0     0  0
  3 31  1  0     0  0
  4 17  1  0     0  0
  4 33  1  0     0  0
  5 30  2  0     0  0
  6 32  1  0     0  0
  7 13  2  0     0  0
  7 21  1  0     0  0
  8 18  1  0     0  0
  8 19  2  0     0  0
  9 18  2  0     0  0
  9 20  1  0     0  0
 10 13  1  0     0  0
 10 19  1  0     0  0
 11 22  1  0     0  0
 11 30  1  0     0  0
 12 34  1  0     0  0
 12 35  1  0     0  0
 12 36  1  0     0  0
 14 21  2  0     0  0
 14 37  1  0     0  0
 15 24  2  0     0  0
 15 25  1  0     0  0
 16 17  2  0     0  0
 16 26  1  0     0  0
 17 27  1  0     0  0
 19 23  1  0     0  0
 20 23  1  0     0  0
 20 26  2  0     0  0
 22 24  1  0     0  0
 22 28  2  0     0  0
 23 27  2  0     0  0
 25 29  2  0     0  0
 28 29  1  0     0  0
 30 37  1  0     0  0
 31 39  1  0     0  0
 32 38  1  0     0  0
 34 39  1  0     0  0
 35 40  1  0     0  0
 36 41  1  0     0  0
 38 40  1  0     0  0
 38 41  1  0     0  0
M  END
> <standard_type>
pIC50

> <# Confs.>
25

> <canonical_smiles>
FC1=CC(NC(CC2=CN=C(NC(C3=C4)=NC=NC3=CC(OCCCN5CCC(CO)CC5)=C4OC)S2)=O)=CC=C1

> <standard_relation>
=

> <Publication_ID>
nan

> <predicted_activity_value>
8.013228265733755

> <actual_activity_value>
8.154901959985743

> <Compound>
3

> <standard_units>
nM

> hash
6019588431572444200

$$$$
3_
XXILIB    08252103493D 0   0.00000     0.00000

 41 45  0     1  0            999 V2000
   -6.8804   -0.4089    3.1470 S   0  0  0  0  0  2           0  0  0
   -7.8365   -8.0699    6.2468 F   0  0  0  0  0  1           0  0  0
    1.3667   -0.0000   -0.0000 O   0  0  0  0  0  2           0  0  0
    0.2177   -0.0024    2.3373 O   0  0  0  0  0  2           0  0  0
  -10.5800   -3.4586    2.5304 O   0  0  0  0  0  2           0  0  0
    7.0345    0.4208   -7.1377 O   0  0  0  0  0  2           0  0  0
   -6.8794   -1.1959    0.6986 N   0  0  0  0  0  3           0  0  0
   -4.9314   -0.0106   -1.0184 N   0  0  0  0  0  3           0  0  0
   -2.8735   -0.0286   -2.2467 N   0  0  0  0  0  3           0  0  0
   -4.9501    0.0475    1.3655 N   0  0  0  0  0  3           0  0  0
   -9.0601   -3.9301    4.2251 N   0  0  0  0  0  3           0  0  0
    4.3893   -1.0761   -2.9323 N   0  0  1  0  0  3           0  0  0
   -6.1570   -0.5277    1.5781 C   0  0  0  0  0  4           0  0  0
   -8.2256   -1.3195    2.6072 C   0  0  0  0  0  4           0  0  0
   -8.5722   -7.4075    5.3430 C   0  0  0  0  0  4           0  0  0
    0.0000    0.0000    0.0000 C   0  0  0  0  0  4           0  0  0
   -0.6166    0.0000    1.2550 C   0  0  0  0  0  4           0  0  0
   -4.2104   -0.0337   -2.1473 C   0  0  0  0  0  4           0  0  0
   -4.2389    0.0348    0.1470 C   0  0  0  0  0  4           0  0  0
   -2.1847   -0.0091   -1.0980 C   0  0  0  0  0  4           0  0  0
   -8.0477   -1.6451    1.2796 C   0  0  0  0  0  4           0  0  0
   -9.2126   -5.3277    4.3006 C   0  0  0  0  0  4           0  0  0
   -2.8197    0.0123    0.1589 C   0  0  0  0  0  4           0  0  0
   -8.4480   -6.0237    5.2423 C   0  0  0  0  0  4           0  0  0
   -9.4457   -8.1130    4.5220 C   0  0  0  0  0  4           0  0  0
   -0.7927   -0.0125   -1.1550 C   0  0  0  0  0  4           0  0  0
   -2.0142    0.0046    1.3272 C   0  0  0  0  0  4           0  0  0
  -10.0961   -6.0320    3.4713 C   0  0  0  0  0  4           0  0  0
  -10.2105   -7.4208    3.5858 C   0  0  0  0  0  4           0  0  0
   -9.7388   -3.0971    3.3523 C   0  0  0  0  0  4           0  0  0
    1.9787   -0.6451   -1.1173 C   0  0  0  0  0  4           0  0  0
    6.4178    1.1266   -6.0687 C   0  0  0  0  0  4           0  0  0
   -0.4295   -0.0023    3.6076 C   0  0  0  0  0  4           0  0  0
    4.0782   -1.9476   -1.7966 C   0  0  0  0  0  4           0  0  0
    5.2254    0.0639   -2.5219 C   0  0  0  0  0  4           0  0  0
    5.0495   -1.8510   -3.9948 C   0  0  0  0  0  4           0  0  0
   -9.3572   -1.6429    3.5137 C   0  0  0  0  0  4           0  0  0
    6.1946    0.2313   -4.8548 C   0  0  1  0  0  4           0  0  0
    3.3184   -1.2254   -0.6818 C   0  0  0  0  0  4           0  0  0
    5.5290    0.9924   -3.7008 C   0  0  0  0  0  4           0  0  0
    5.3426   -0.9864   -5.2222 C   0  0  0  0  0  4           0  0  0
  1 13  1  0     0  0
  1 14  1  0     0  0
  2 15  1  0     0  0
  3 16  1  0     0  0
  3 31  1  0     0  0
  4 17  1  0     0  0
  4 33  1  0     0  0
  5 30  2  0     0  0
  6 32  1  0     0  0
  7 13  2  0     0  0
  7 21  1  0     0  0
  8 18  1  0     0  0
  8 19  2  0     0  0
  9 18  2  0     0  0
  9 20  1  0     0  0
 10 13  1  0     0  0
 10 19  1  0     0  0
 11 22  1  0     0  0
 11 30  1  0     0  0
 12 34  1  0     0  0
 12 35  1  0     0  0
 12 36  1  0     0  0
 14 21  2  0     0  0
 14 37  1  0     0  0
 15 24  2  0     0  0
 15 25  1  0     0  0
 16 17  2  0     0  0
 16 26  1  0     0  0
 17 27  1  0     0  0
 19 23  1  0     0  0
 20 23  1  0     0  0
 20 26  2  0     0  0
 22 24  1  0     0  0
 22 28  2  0     0  0
 23 27  2  0     0  0
 25 29  2  0     0  0
 28 29  1  0     0  0
 30 37  1  0     0  0
 31 39  1  0     0  0
 32 38  1  0     0  0
 34 39  1  0     0  0
 35 40  1  0     0  0
 36 41  1  0     0  0
 38 40  1  0     0  0
 38 41  1  0     0  0
M  END
> <standard_type>
pIC50

> <# Confs.>
25

> <canonical_smiles>
FC1=CC(NC(CC2=CN=C(NC(C3=C4)=NC=NC3=CC(OCCCN5CCC(CO)CC5)=C4OC)S2)=O)=CC=C1

> <standard_relation>
=

> <Publication_ID>
nan

> <predicted_activity_value>
8.013228265733755

> <actual_activity_value>
8.154901959985743

> <Compound>
3

> <standard_units>
nM

> hash
6019588431572444200

$$$$
3_
XXILIB    08252103493D 0   0.00000     0.00000

 41 45  0     1  0            999 V2000
   -6.8804   -0.4089    3.1470 S   0  0  0  0  0  2           0  0  0
  -11.0510    4.5930    6.5686 F   0  0  0  0  0  1           0  0  0
    1.3667    0.0000    0.0000 O   0  0  0  0  0  2           0  0  0
    0.2177   -0.0024    2.3373 O   0  0  0  0  0  2           0  0  0
  -11.3247   -0.5980    2.6214 O   0  0  0  0  0  2           0  0  0
    2.7997    7.6143   -4.8183 O   0  0  0  0  0  2           0  0  0
   -6.8794   -1.1959    0.6986 N   0  0  0  0  0  3           0  0  0
   -4.9314   -0.0106   -1.0184 N   0  0  0  0  0  3           0  0  0
   -2.8735   -0.0286   -2.2467 N   0  0  0  0  0  3           0  0  0
   -4.9501    0.0475    1.3655 N   0  0  0  0  0  3           0  0  0
  -10.1814    0.4693    4.3414 N   0  0  0  0  0  3           0  0  0
    3.3335    3.0793   -2.3540 N   0  0  1  0  0  3           0  0  0
   -6.1570   -0.5277    1.5781 C   0  0  0  0  0  4           0  0  0
   -8.2256   -1.3195    2.6072 C   0  0  0  0  0  4           0  0  0
  -11.4036    3.6949    5.6382 C   0  0  0  0  0  4           0  0  0
    0.0000    0.0000    0.0000 C   0  0  0  0  0  4           0  0  0
   -0.6166    0.0000    1.2550 C   0  0  0  0  0  4           0  0  0
   -4.2104   -0.0337   -2.1473 C   0  0  0  0  0  4           0  0  0
   -4.2389    0.0348    0.1470 C   0  0  0  0  0  4           0  0  0
   -2.1847   -0.0091   -1.0980 C   0  0  0  0  0  4           0  0  0
   -8.0477   -1.6451    1.2796 C   0  0  0  0  0  4           0  0  0
  -10.9895    1.6123    4.4920 C   0  0  0  0  0  4           0  0  0
   -2.8197    0.0123    0.1589 C   0  0  0  0  0  4           0  0  0
  -10.6257    2.5530    5.4609 C   0  0  0  0  0  4           0  0  0
  -12.5394    3.9184    4.8670 C   0  0  0  0  0  4           0  0  0
   -0.7927   -0.0125   -1.1550 C   0  0  0  0  0  4           0  0  0
   -2.0142    0.0046    1.3272 C   0  0  0  0  0  4           0  0  0
  -12.1318    1.8320    3.7102 C   0  0  0  0  0  4           0  0  0
  -12.9012    2.9841    3.8992 C   0  0  0  0  0  4           0  0  0
  -10.4013   -0.5522    3.4333 C   0  0  0  0  0  4           0  0  0
    1.9787    0.6451   -1.1173 C   0  0  0  0  0  4           0  0  0
    2.1271    7.0146   -3.7187 C   0  0  0  0  0  4           0  0  0
   -0.4295   -0.0023    3.6076 C   0  0  0  0  0  4           0  0  0
    4.0782    1.9476   -1.7966 C   0  0  0  0  0  4           0  0  0
    3.0372    4.0880   -1.3235 C   0  0  0  0  0  4           0  0  0
    4.0868    3.6775   -3.4675 C   0  0  0  0  0  4           0  0  0
   -9.3572   -1.6429    3.5137 C   0  0  0  0  0  4           0  0  0
    2.9597    5.9066   -3.0831 C   0  0  1  0  0  4           0  0  0
    3.3184    1.2254   -0.6818 C   0  0  0  0  0  4           0  0  0
    2.2344    5.2589   -1.8963 C   0  0  0  0  0  4           0  0  0
    3.3163    4.8311   -4.1124 C   0  0  0  0  0  4           0  0  0
  1 13  1  0     0  0
  1 14  1  0     0  0
  2 15  1  0     0  0
  3 16  1  0     0  0
  3 31  1  0     0  0
  4 17  1  0     0  0
  4 33  1  0     0  0
  5 30  2  0     0  0
  6 32  1  0     0  0
  7 13  2  0     0  0
  7 21  1  0     0  0
  8 18  1  0     0  0
  8 19  2  0     0  0
  9 18  2  0     0  0
  9 20  1  0     0  0
 10 13  1  0     0  0
 10 19  1  0     0  0
 11 22  1  0     0  0
 11 30  1  0     0  0
 12 34  1  0     0  0
 12 35  1  0     0  0
 12 36  1  0     0  0
 14 21  2  0     0  0
 14 37  1  0     0  0
 15 24  2  0     0  0
 15 25  1  0     0  0
 16 17  2  0     0  0
 16 26  1  0     0  0
 17 27  1  0     0  0
 19 23  1  0     0  0
 20 23  1  0     0  0
 20 26  2  0     0  0
 22 24  1  0     0  0
 22 28  2  0     0  0
 23 27  2  0     0  0
 25 29  2  0     0  0
 28 29  1  0     0  0
 30 37  1  0     0  0
 31 39  1  0     0  0
 32 38  1  0     0  0
 34 39  1  0     0  0
 35 40  1  0     0  0
 36 41  1  0     0  0
 38 40  1  0     0  0
 38 41  1  0     0  0
M  END
> <standard_type>
pIC50

> <# Confs.>
25

> <canonical_smiles>
FC1=CC(NC(CC2=CN=C(NC(C3=C4)=NC=NC3=CC(OCCCN5CCC(CO)CC5)=C4OC)S2)=O)=CC=C1

> <standard_relation>
=

> <Publication_ID>
nan

> <predicted_activity_value>
8.013228265733755

> <actual_activity_value>
8.154901959985743

> <Compound>
3

> <standard_units>
nM

> hash
6019588431572444200

$$$$
3_
XXILIB    08252103493D 0   0.00000     0.00000

 41 45  0     1  0            999 V2000
   -6.8804   -0.4089    3.1470 S   0  0  0  0  0  2           0  0  0
   -7.8365   -8.0699    6.2468 F   0  0  0  0  0  1           0  0  0
    1.3667   -0.0000    0.0000 O   0  0  0  0  0  2           0  0  0
    0.2177   -0.0024    2.3373 O   0  0  0  0  0  2           0  0  0
  -10.5800   -3.4586    2.5304 O   0  0  0  0  0  2           0  0  0
   10.0268   -2.3939    2.0055 O   0  0  0  0  0  2           0  0  0
   -6.8794   -1.1959    0.6986 N   0  0  0  0  0  3           0  0  0
   -4.9314   -0.0106   -1.0184 N   0  0  0  0  0  3           0  0  0
   -2.8735   -0.0286   -2.2467 N   0  0  0  0  0  3           0  0  0
   -4.9501    0.0475    1.3655 N   0  0  0  0  0  3           0  0  0
   -9.0601   -3.9301    4.2251 N   0  0  0  0  0  3           0  0  0
    5.4929   -1.1838   -0.2086 N   0  0  1  0  0  3           0  0  0
   -6.1570   -0.5277    1.5781 C   0  0  0  0  0  4           0  0  0
   -8.2256   -1.3195    2.6072 C   0  0  0  0  0  4           0  0  0
   -8.5722   -7.4075    5.3430 C   0  0  0  0  0  4           0  0  0
    0.0000    0.0000    0.0000 C   0  0  0  0  0  4           0  0  0
   -0.6166    0.0000    1.2550 C   0  0  0  0  0  4           0  0  0
   -4.2104   -0.0337   -2.1473 C   0  0  0  0  0  4           0  0  0
   -4.2389    0.0348    0.1470 C   0  0  0  0  0  4           0  0  0
   -2.1847   -0.0091   -1.0980 C   0  0  0  0  0  4           0  0  0
   -8.0477   -1.6451    1.2796 C   0  0  0  0  0  4           0  0  0
   -9.2126   -5.3277    4.3006 C   0  0  0  0  0  4           0  0  0
   -2.8197    0.0123    0.1589 C   0  0  0  0  0  4           0  0  0
   -8.4480   -6.0237    5.2423 C   0  0  0  0  0  4           0  0  0
   -9.4457   -8.1130    4.5220 C   0  0  0  0  0  4           0  0  0
   -0.7927   -0.0125   -1.1550 C   0  0  0  0  0  4           0  0  0
   -2.0142    0.0046    1.3272 C   0  0  0  0  0  4           0  0  0
  -10.0961   -6.0320    3.4713 C   0  0  0  0  0  4           0  0  0
  -10.2105   -7.4208    3.5858 C   0  0  0  0  0  4           0  0  0
   -9.7388   -3.0971    3.3523 C   0  0  0  0  0  4           0  0  0
    1.9787    0.0000   -1.2901 C   0  0  0  0  0  4           0  0  0
    9.5265   -1.2179    1.3829 C   0  0  0  0  0  4           0  0  0
   -0.4295   -0.0023    3.6076 C   0  0  0  0  0  4           0  0  0
    4.0357   -1.2098   -0.3568 C   0  0  0  0  0  4           0  0  0
    5.9375    0.0125    0.5252 C   0  0  0  0  0  4           0  0  0
    5.9518   -2.4090    0.4649 C   0  0  0  0  0  4           0  0  0
   -9.3572   -1.6429    3.5137 C   0  0  0  0  0  4           0  0  0
    8.0027   -1.2115    1.3291 C   0  0  1  0  0  4           0  0  0
    3.4928   -0.0000   -1.1205 C   0  0  0  0  0  4           0  0  0
    7.4621    0.0575    0.6573 C   0  0  0  0  0  4           0  0  0
    7.4761   -2.4445    0.5905 C   0  0  0  0  0  4           0  0  0
  1 13  1  0     0  0
  1 14  1  0     0  0
  2 15  1  0     0  0
  3 16  1  0     0  0
  3 31  1  0     0  0
  4 17  1  0     0  0
  4 33  1  0     0  0
  5 30  2  0     0  0
  6 32  1  0     0  0
  7 13  2  0     0  0
  7 21  1  0     0  0
  8 18  1  0     0  0
  8 19  2  0     0  0
  9 18  2  0     0  0
  9 20  1  0     0  0
 10 13  1  0     0  0
 10 19  1  0     0  0
 11 22  1  0     0  0
 11 30  1  0     0  0
 12 34  1  0     0  0
 12 35  1  0     0  0
 12 36  1  0     0  0
 14 21  2  0     0  0
 14 37  1  0     0  0
 15 24  2  0     0  0
 15 25  1  0     0  0
 16 17  2  0     0  0
 16 26  1  0     0  0
 17 27  1  0     0  0
 19 23  1  0     0  0
 20 23  1  0     0  0
 20 26  2  0     0  0
 22 24  1  0     0  0
 22 28  2  0     0  0
 23 27  2  0     0  0
 25 29  2  0     0  0
 28 29  1  0     0  0
 30 37  1  0     0  0
 31 39  1  0     0  0
 32 38  1  0     0  0
 34 39  1  0     0  0
 35 40  1  0     0  0
 36 41  1  0     0  0
 38 40  1  0     0  0
 38 41  1  0     0  0
M  END
> <standard_type>
pIC50

> <# Confs.>
25

> <canonical_smiles>
FC1=CC(NC(CC2=CN=C(NC(C3=C4)=NC=NC3=CC(OCCCN5CCC(CO)CC5)=C4OC)S2)=O)=CC=C1

> <standard_relation>
=

> <Publication_ID>
nan

> <predicted_activity_value>
8.013228265733755

> <actual_activity_value>
8.154901959985743

> <Compound>
3

> <standard_units>
nM

> hash
6019588431572444200

$$$$
3_
XXILIB    08252103493D 0   0.00000     0.00000

 41 45  0     1  0            999 V2000
   -6.8804   -0.4089    3.1470 S   0  0  0  0  0  2           0  0  0
   -7.8365   -8.0699    6.2468 F   0  0  0  0  0  1           0  0  0
    1.3667    0.0000    0.0000 O   0  0  0  0  0  2           0  0  0
    0.2177   -0.0024    2.3373 O   0  0  0  0  0  2           0  0  0
  -10.5800   -3.4586    2.5304 O   0  0  0  0  0  2           0  0  0
    4.9476    0.5787   -8.3719 O   0  0  0  0  0  2           0  0  0
   -6.8794   -1.1959    0.6986 N   0  0  0  0  0  3           0  0  0
   -4.9314   -0.0106   -1.0184 N   0  0  0  0  0  3           0  0  0
   -2.8735   -0.0286   -2.2467 N   0  0  0  0  0  3           0  0  0
   -4.9501    0.0475    1.3655 N   0  0  0  0  0  3           0  0  0
   -9.0601   -3.9301    4.2251 N   0  0  0  0  0  3           0  0  0
    3.9770   -0.6245   -3.4188 N   0  0  1  0  0  3           0  0  0
   -6.1570   -0.5277    1.5781 C   0  0  0  0  0  4           0  0  0
   -8.2256   -1.3195    2.6072 C   0  0  0  0  0  4           0  0  0
   -8.5722   -7.4075    5.3430 C   0  0  0  0  0  4           0  0  0
    0.0000    0.0000    0.0000 C   0  0  0  0  0  4           0  0  0
   -0.6166    0.0000    1.2550 C   0  0  0  0  0  4           0  0  0
   -4.2104   -0.0337   -2.1473 C   0  0  0  0  0  4           0  0  0
   -4.2389    0.0348    0.1470 C   0  0  0  0  0  4           0  0  0
   -2.1847   -0.0091   -1.0980 C   0  0  0  0  0  4           0  0  0
   -8.0477   -1.6451    1.2796 C   0  0  0  0  0  4           0  0  0
   -9.2126   -5.3277    4.3006 C   0  0  0  0  0  4           0  0  0
   -2.8197    0.0123    0.1589 C   0  0  0  0  0  4           0  0  0
   -8.4480   -6.0237    5.2423 C   0  0  0  0  0  4           0  0  0
   -9.4457   -8.1130    4.5220 C   0  0  0  0  0  4           0  0  0
   -0.7927   -0.0125   -1.1550 C   0  0  0  0  0  4           0  0  0
   -2.0142    0.0046    1.3272 C   0  0  0  0  0  4           0  0  0
  -10.0961   -6.0320    3.4713 C   0  0  0  0  0  4           0  0  0
  -10.2105   -7.4208    3.5858 C   0  0  0  0  0  4           0  0  0
   -9.7388   -3.0971    3.3523 C   0  0  0  0  0  4           0  0  0
    1.9787   -0.6451   -1.1173 C   0  0  0  0  0  4           0  0  0
    4.2973    1.2636   -7.3093 C   0  0  0  0  0  4           0  0  0
   -0.4295   -0.0023    3.6076 C   0  0  0  0  0  4           0  0  0
    4.2691   -1.2196   -2.1124 C   0  0  0  0  0  4           0  0  0
    4.3204    0.8067   -3.4465 C   0  0  0  0  0  4           0  0  0
    4.6961   -1.3537   -4.4755 C   0  0  0  0  0  4           0  0  0
   -9.3572   -1.6429    3.5137 C   0  0  0  0  0  4           0  0  0
    4.6916    0.6999   -5.9486 C   0  0  1  0  0  4           0  0  0
    3.4928   -0.5602   -0.9704 C   0  0  0  0  0  4           0  0  0
    3.9902    1.4386   -4.8013 C   0  0  0  0  0  4           0  0  0
    4.3743   -0.7953   -5.8629 C   0  0  0  0  0  4           0  0  0
  1 13  1  0     0  0
  1 14  1  0     0  0
  2 15  1  0     0  0
  3 16  1  0     0  0
  3 31  1  0     0  0
  4 17  1  0     0  0
  4 33  1  0     0  0
  5 30  2  0     0  0
  6 32  1  0     0  0
  7 13  2  0     0  0
  7 21  1  0     0  0
  8 18  1  0     0  0
  8 19  2  0     0  0
  9 18  2  0     0  0
  9 20  1  0     0  0
 10 13  1  0     0  0
 10 19  1  0     0  0
 11 22  1  0     0  0
 11 30  1  0     0  0
 12 34  1  0     0  0
 12 35  1  0     0  0
 12 36  1  0     0  0
 14 21  2  0     0  0
 14 37  1  0     0  0
 15 24  2  0     0  0
 15 25  1  0     0  0
 16 17  2  0     0  0
 16 26  1  0     0  0
 17 27  1  0     0  0
 19 23  1  0     0  0
 20 23  1  0     0  0
 20 26  2  0     0  0
 22 24  1  0     0  0
 22 28  2  0     0  0
 23 27  2  0     0  0
 25 29  2  0     0  0
 28 29  1  0     0  0
 30 37  1  0     0  0
 31 39  1  0     0  0
 32 38  1  0     0  0
 34 39  1  0     0  0
 35 40  1  0     0  0
 36 41  1  0     0  0
 38 40  1  0     0  0
 38 41  1  0     0  0
M  END
> <standard_type>
pIC50

> <# Confs.>
25

> <canonical_smiles>
FC1=CC(NC(CC2=CN=C(NC(C3=C4)=NC=NC3=CC(OCCCN5CCC(CO)CC5)=C4OC)S2)=O)=CC=C1

> <standard_relation>
=

> <Publication_ID>
nan

> <predicted_activity_value>
8.013228265733755

> <actual_activity_value>
8.154901959985743

> <Compound>
3

> <standard_units>
nM

> hash
6019588431572444200

$$$$
3_
XXILIB    08252103493D 0   0.00000     0.00000

 41 45  0     1  0            999 V2000
   -6.8804   -0.4089    3.1470 S   0  0  0  0  0  2           0  0  0
  -14.1166    3.5667    2.3753 F   0  0  0  0  0  1           0  0  0
    1.3667   -0.0000   -0.0000 O   0  0  0  0  0  2           0  0  0
    0.2177   -0.0024    2.3373 O   0  0  0  0  0  2           0  0  0
  -11.2240   -2.2799    2.1469 O   0  0  0  0  0  2           0  0  0
    7.0345    0.4208   -7.1377 O   0  0  0  0  0  2           0  0  0
   -6.8794   -1.1959    0.6986 N   0  0  0  0  0  3           0  0  0
   -4.9314   -0.0106   -1.0184 N   0  0  0  0  0  3           0  0  0
   -2.8735   -0.0286   -2.2467 N   0  0  0  0  0  3           0  0  0
   -4.9501    0.0475    1.3655 N   0  0  0  0  0  3           0  0  0
  -11.1290   -0.1021    2.9547 N   0  0  0  0  0  3           0  0  0
    4.3893   -1.0761   -2.9323 N   0  0  1  0  0  3           0  0  0
   -6.1570   -0.5277    1.5781 C   0  0  0  0  0  4           0  0  0
   -8.2256   -1.3195    2.6072 C   0  0  0  0  0  4           0  0  0
  -13.8122    2.2849    2.1284 C   0  0  0  0  0  4           0  0  0
    0.0000    0.0000    0.0000 C   0  0  0  0  0  4           0  0  0
   -0.6166    0.0000    1.2550 C   0  0  0  0  0  4           0  0  0
   -4.2104   -0.0337   -2.1473 C   0  0  0  0  0  4           0  0  0
   -4.2389    0.0348    0.1470 C   0  0  0  0  0  4           0  0  0
   -2.1847   -0.0091   -1.0980 C   0  0  0  0  0  4           0  0  0
   -8.0477   -1.6451    1.2796 C   0  0  0  0  0  4           0  0  0
  -12.3190    0.4094    2.4031 C   0  0  0  0  0  4           0  0  0
   -2.8197    0.0123    0.1589 C   0  0  0  0  0  4           0  0  0
  -12.6412    1.7465    2.6570 C   0  0  0  0  0  4           0  0  0
  -14.6702    1.5154    1.3496 C   0  0  0  0  0  4           0  0  0
   -0.7927   -0.0125   -1.1550 C   0  0  0  0  0  4           0  0  0
   -2.0142    0.0046    1.3272 C   0  0  0  0  0  4           0  0  0
  -13.1782   -0.3713    1.6177 C   0  0  0  0  0  4           0  0  0
  -14.3490    0.1844    1.0930 C   0  0  0  0  0  4           0  0  0
  -10.6672   -1.3979    2.7995 C   0  0  0  0  0  4           0  0  0
    1.9787   -0.6451   -1.1173 C   0  0  0  0  0  4           0  0  0
    6.4178    1.1266   -6.0687 C   0  0  0  0  0  4           0  0  0
   -0.4295   -0.0023    3.6076 C   0  0  0  0  0  4           0  0  0
    4.0782   -1.9476   -1.7966 C   0  0  0  0  0  4           0  0  0
    5.2254    0.0639   -2.5219 C   0  0  0  0  0  4           0  0  0
    5.0495   -1.8510   -3.9948 C   0  0  0  0  0  4           0  0  0
   -9.3572   -1.6429    3.5137 C   0  0  0  0  0  4           0  0  0
    6.1946    0.2313   -4.8548 C   0  0  1  0  0  4           0  0  0
    3.3184   -1.2254   -0.6818 C   0  0  0  0  0  4           0  0  0
    5.5290    0.9924   -3.7008 C   0  0  0  0  0  4           0  0  0
    5.3426   -0.9864   -5.2222 C   0  0  0  0  0  4           0  0  0
  1 13  1  0     0  0
  1 14  1  0     0  0
  2 15  1  0     0  0
  3 16  1  0     0  0
  3 31  1  0     0  0
  4 17  1  0     0  0
  4 33  1  0     0  0
  5 30  2  0     0  0
  6 32  1  0     0  0
  7 13  2  0     0  0
  7 21  1  0     0  0
  8 18  1  0     0  0
  8 19  2  0     0  0
  9 18  2  0     0  0
  9 20  1  0     0  0
 10 13  1  0     0  0
 10 19  1  0     0  0
 11 22  1  0     0  0
 11 30  1  0     0  0
 12 34  1  0     0  0
 12 35  1  0     0  0
 12 36  1  0     0  0
 14 21  2  0     0  0
 14 37  1  0     0  0
 15 24  2  0     0  0
 15 25  1  0     0  0
 16 17  2  0     0  0
 16 26  1  0     0  0
 17 27  1  0     0  0
 19 23  1  0     0  0
 20 23  1  0     0  0
 20 26  2  0     0  0
 22 24  1  0     0  0
 22 28  2  0     0  0
 23 27  2  0     0  0
 25 29  2  0     0  0
 28 29  1  0     0  0
 30 37  1  0     0  0
 31 39  1  0     0  0
 32 38  1  0     0  0
 34 39  1  0     0  0
 35 40  1  0     0  0
 36 41  1  0     0  0
 38 40  1  0     0  0
 38 41  1  0     0  0
M  END
> <standard_type>
pIC50

> <# Confs.>
25

> <canonical_smiles>
FC1=CC(NC(CC2=CN=C(NC(C3=C4)=NC=NC3=CC(OCCCN5CCC(CO)CC5)=C4OC)S2)=O)=CC=C1

> <standard_relation>
=

> <Publication_ID>
nan

> <predicted_activity_value>
8.013228265733755

> <actual_activity_value>
8.154901959985743

> <Compound>
3

> <standard_units>
nM

> hash
6019588431572444200

$$$$
3_
XXILIB    08252103493D 0   0.00000     0.00000

 41 45  0     1  0            999 V2000
   -6.8804   -0.4089    3.1470 S   0  0  0  0  0  2           0  0  0
   -4.6246   -4.6464    7.9488 F   0  0  0  0  0  1           0  0  0
    1.3667   -0.0000    0.0000 O   0  0  0  0  0  2           0  0  0
    0.2177   -0.0024    2.3373 O   0  0  0  0  0  2           0  0  0
   -9.8417   -3.9204    4.0944 O   0  0  0  0  0  2           0  0  0
    4.6375    5.9995   -5.1139 O   0  0  0  0  0  2           0  0  0
   -6.8794   -1.1959    0.6986 N   0  0  0  0  0  3           0  0  0
   -4.9314   -0.0106   -1.0184 N   0  0  0  0  0  3           0  0  0
   -2.8735   -0.0286   -2.2467 N   0  0  0  0  0  3           0  0  0
   -4.9501    0.0475    1.3655 N   0  0  0  0  0  3           0  0  0
   -7.9425   -2.9240    4.9913 N   0  0  0  0  0  3           0  0  0
    3.9770    1.1686   -3.2730 N   0  0  1  0  0  3           0  0  0
   -6.1570   -0.5277    1.5781 C   0  0  0  0  0  4           0  0  0
   -8.2256   -1.3195    2.6072 C   0  0  0  0  0  4           0  0  0
   -5.7520   -4.8416    7.2507 C   0  0  0  0  0  4           0  0  0
    0.0000    0.0000    0.0000 C   0  0  0  0  0  4           0  0  0
   -0.6166    0.0000    1.2550 C   0  0  0  0  0  4           0  0  0
   -4.2104   -0.0337   -2.1473 C   0  0  0  0  0  4           0  0  0
   -4.2389    0.0348    0.1470 C   0  0  0  0  0  4           0  0  0
   -2.1847   -0.0091   -1.0980 C   0  0  0  0  0  4           0  0  0
   -8.0477   -1.6451    1.2796 C   0  0  0  0  0  4           0  0  0
   -7.4471   -3.9981    5.7547 C   0  0  0  0  0  4           0  0  0
   -2.8197    0.0123    0.1589 C   0  0  0  0  0  4           0  0  0
   -6.2714   -3.7997    6.4857 C   0  0  0  0  0  4           0  0  0
   -6.3829   -6.0802    7.3019 C   0  0  0  0  0  4           0  0  0
   -0.7927   -0.0125   -1.1550 C   0  0  0  0  0  4           0  0  0
   -2.0142    0.0046    1.3272 C   0  0  0  0  0  4           0  0  0
   -8.0890   -5.2431    5.8032 C   0  0  0  0  0  4           0  0  0
   -7.5559   -6.2784    6.5772 C   0  0  0  0  0  4           0  0  0
   -9.0883   -2.9552    4.2150 C   0  0  0  0  0  4           0  0  0
    1.9787    0.0000   -1.2901 C   0  0  0  0  0  4           0  0  0
    4.2973    4.7490   -5.6983 C   0  0  0  0  0  4           0  0  0
   -0.4295   -0.0023    3.6076 C   0  0  0  0  0  4           0  0  0
    4.2691    0.0000   -2.4392 C   0  0  0  0  0  4           0  0  0
    4.3204    2.4219   -2.5814 C   0  0  0  0  0  4           0  0  0
    4.6961    1.0654   -4.5527 C   0  0  0  0  0  4           0  0  0
   -9.3572   -1.6429    3.5137 C   0  0  0  0  0  4           0  0  0
    4.6916    3.5804   -4.8017 C   0  0  1  0  0  4           0  0  0
    3.4928    0.0000   -1.1205 C   0  0  0  0  0  4           0  0  0
    3.9902    3.6466   -3.4387 C   0  0  0  0  0  4           0  0  0
    4.3743    2.2427   -5.4751 C   0  0  0  0  0  4           0  0  0
  1 13  1  0     0  0
  1 14  1  0     0  0
  2 15  1  0     0  0
  3 16  1  0     0  0
  3 31  1  0     0  0
  4 17  1  0     0  0
  4 33  1  0     0  0
  5 30  2  0     0  0
  6 32  1  0     0  0
  7 13  2  0     0  0
  7 21  1  0     0  0
  8 18  1  0     0  0
  8 19  2  0     0  0
  9 18  2  0     0  0
  9 20  1  0     0  0
 10 13  1  0     0  0
 10 19  1  0     0  0
 11 22  1  0     0  0
 11 30  1  0     0  0
 12 34  1  0     0  0
 12 35  1  0     0  0
 12 36  1  0     0  0
 14 21  2  0     0  0
 14 37  1  0     0  0
 15 24  2  0     0  0
 15 25  1  0     0  0
 16 17  2  0     0  0
 16 26  1  0     0  0
 17 27  1  0     0  0
 19 23  1  0     0  0
 20 23  1  0     0  0
 20 26  2  0     0  0
 22 24  1  0     0  0
 22 28  2  0     0  0
 23 27  2  0     0  0
 25 29  2  0     0  0
 28 29  1  0     0  0
 30 37  1  0     0  0
 31 39  1  0     0  0
 32 38  1  0     0  0
 34 39  1  0     0  0
 35 40  1  0     0  0
 36 41  1  0     0  0
 38 40  1  0     0  0
 38 41  1  0     0  0
M  END
> <standard_type>
pIC50

> <# Confs.>
25

> <canonical_smiles>
FC1=CC(NC(CC2=CN=C(NC(C3=C4)=NC=NC3=CC(OCCCN5CCC(CO)CC5)=C4OC)S2)=O)=CC=C1

> <standard_relation>
=

> <Publication_ID>
nan

> <predicted_activity_value>
8.013228265733755

> <actual_activity_value>
8.154901959985743

> <Compound>
3

> <standard_units>
nM

> hash
6019588431572444200

$$$$
3_
XXILIB    08252103493D 0   0.00000     0.00000

 41 45  0     1  0            999 V2000
   -6.8804   -0.4089    3.1470 S   0  0  0  0  0  2           0  0  0
  -14.1166    3.5667    2.3753 F   0  0  0  0  0  1           0  0  0
    1.3667   -0.0000    0.0000 O   0  0  0  0  0  2           0  0  0
    0.2177   -0.0024    2.3373 O   0  0  0  0  0  2           0  0  0
  -11.2240   -2.2799    2.1469 O   0  0  0  0  0  2           0  0  0
   10.0268   -2.3939    2.0055 O   0  0  0  0  0  2           0  0  0
   -6.8794   -1.1959    0.6986 N   0  0  0  0  0  3           0  0  0
   -4.9314   -0.0106   -1.0184 N   0  0  0  0  0  3           0  0  0
   -2.8735   -0.0286   -2.2467 N   0  0  0  0  0  3           0  0  0
   -4.9501    0.0475    1.3655 N   0  0  0  0  0  3           0  0  0
  -11.1290   -0.1021    2.9547 N   0  0  0  0  0  3           0  0  0
    5.4929   -1.1838   -0.2086 N   0  0  1  0  0  3           0  0  0
   -6.1570   -0.5277    1.5781 C   0  0  0  0  0  4           0  0  0
   -8.2256   -1.3195    2.6072 C   0  0  0  0  0  4           0  0  0
  -13.8122    2.2849    2.1284 C   0  0  0  0  0  4           0  0  0
    0.0000    0.0000    0.0000 C   0  0  0  0  0  4           0  0  0
   -0.6166    0.0000    1.2550 C   0  0  0  0  0  4           0  0  0
   -4.2104   -0.0337   -2.1473 C   0  0  0  0  0  4           0  0  0
   -4.2389    0.0348    0.1470 C   0  0  0  0  0  4           0  0  0
   -2.1847   -0.0091   -1.0980 C   0  0  0  0  0  4           0  0  0
   -8.0477   -1.6451    1.2796 C   0  0  0  0  0  4           0  0  0
  -12.3190    0.4094    2.4031 C   0  0  0  0  0  4           0  0  0
   -2.8197    0.0123    0.1589 C   0  0  0  0  0  4           0  0  0
  -12.6412    1.7465    2.6570 C   0  0  0  0  0  4           0  0  0
  -14.6702    1.5154    1.3496 C   0  0  0  0  0  4           0  0  0
   -0.7927   -0.0125   -1.1550 C   0  0  0  0  0  4           0  0  0
   -2.0142    0.0046    1.3272 C   0  0  0  0  0  4           0  0  0
  -13.1782   -0.3713    1.6177 C   0  0  0  0  0  4           0  0  0
  -14.3490    0.1844    1.0930 C   0  0  0  0  0  4           0  0  0
  -10.6672   -1.3979    2.7995 C   0  0  0  0  0  4           0  0  0
    1.9787    0.0000   -1.2901 C   0  0  0  0  0  4           0  0  0
    9.5265   -1.2179    1.3829 C   0  0  0  0  0  4           0  0  0
   -0.4295   -0.0023    3.6076 C   0  0  0  0  0  4           0  0  0
    4.0357   -1.2098   -0.3568 C   0  0  0  0  0  4           0  0  0
    5.9375    0.0125    0.5252 C   0  0  0  0  0  4           0  0  0
    5.9518   -2.4090    0.4649 C   0  0  0  0  0  4           0  0  0
   -9.3572   -1.6429    3.5137 C   0  0  0  0  0  4           0  0  0
    8.0027   -1.2115    1.3291 C   0  0  1  0  0  4           0  0  0
    3.4928   -0.0000   -1.1205 C   0  0  0  0  0  4           0  0  0
    7.4621    0.0575    0.6573 C   0  0  0  0  0  4           0  0  0
    7.4761   -2.4445    0.5905 C   0  0  0  0  0  4           0  0  0
  1 13  1  0     0  0
  1 14  1  0     0  0
  2 15  1  0     0  0
  3 16  1  0     0  0
  3 31  1  0     0  0
  4 17  1  0     0  0
  4 33  1  0     0  0
  5 30  2  0     0  0
  6 32  1  0     0  0
  7 13  2  0     0  0
  7 21  1  0     0  0
  8 18  1  0     0  0
  8 19  2  0     0  0
  9 18  2  0     0  0
  9 20  1  0     0  0
 10 13  1  0     0  0
 10 19  1  0     0  0
 11 22  1  0     0  0
 11 30  1  0     0  0
 12 34  1  0     0  0
 12 35  1  0     0  0
 12 36  1  0     0  0
 14 21  2  0     0  0
 14 37  1  0     0  0
 15 24  2  0     0  0
 15 25  1  0     0  0
 16 17  2  0     0  0
 16 26  1  0     0  0
 17 27  1  0     0  0
 19 23  1  0     0  0
 20 23  1  0     0  0
 20 26  2  0     0  0
 22 24  1  0     0  0
 22 28  2  0     0  0
 23 27  2  0     0  0
 25 29  2  0     0  0
 28 29  1  0     0  0
 30 37  1  0     0  0
 31 39  1  0     0  0
 32 38  1  0     0  0
 34 39  1  0     0  0
 35 40  1  0     0  0
 36 41  1  0     0  0
 38 40  1  0     0  0
 38 41  1  0     0  0
M  END
> <standard_type>
pIC50

> <# Confs.>
25

> <canonical_smiles>
FC1=CC(NC(CC2=CN=C(NC(C3=C4)=NC=NC3=CC(OCCCN5CCC(CO)CC5)=C4OC)S2)=O)=CC=C1

> <standard_relation>
=

> <Publication_ID>
nan

> <predicted_activity_value>
8.013228265733755

> <actual_activity_value>
8.154901959985743

> <Compound>
3

> <standard_units>
nM

> hash
6019588431572444200

$$$$
3_
XXILIB    08252103493D 0   0.00000     0.00000

 41 45  0     1  0            999 V2000
   -6.8804   -0.4089    3.1470 S   0  0  0  0  0  2           0  0  0
  -14.1166    3.5667    2.3753 F   0  0  0  0  0  1           0  0  0
    1.3667    0.0000    0.0000 O   0  0  0  0  0  2           0  0  0
    0.2177   -0.0024    2.3373 O   0  0  0  0  0  2           0  0  0
  -11.2240   -2.2799    2.1469 O   0  0  0  0  0  2           0  0  0
    4.9476    0.5787   -8.3719 O   0  0  0  0  0  2           0  0  0
   -6.8794   -1.1959    0.6986 N   0  0  0  0  0  3           0  0  0
   -4.9314   -0.0106   -1.0184 N   0  0  0  0  0  3           0  0  0
   -2.8735   -0.0286   -2.2467 N   0  0  0  0  0  3           0  0  0
   -4.9501    0.0475    1.3655 N   0  0  0  0  0  3           0  0  0
  -11.1290   -0.1021    2.9547 N   0  0  0  0  0  3           0  0  0
    3.9770   -0.6245   -3.4188 N   0  0  1  0  0  3           0  0  0
   -6.1570   -0.5277    1.5781 C   0  0  0  0  0  4           0  0  0
   -8.2256   -1.3195    2.6072 C   0  0  0  0  0  4           0  0  0
  -13.8122    2.2849    2.1284 C   0  0  0  0  0  4           0  0  0
    0.0000    0.0000    0.0000 C   0  0  0  0  0  4           0  0  0
   -0.6166    0.0000    1.2550 C   0  0  0  0  0  4           0  0  0
   -4.2104   -0.0337   -2.1473 C   0  0  0  0  0  4           0  0  0
   -4.2389    0.0348    0.1470 C   0  0  0  0  0  4           0  0  0
   -2.1847   -0.0091   -1.0980 C   0  0  0  0  0  4           0  0  0
   -8.0477   -1.6451    1.2796 C   0  0  0  0  0  4           0  0  0
  -12.3190    0.4094    2.4031 C   0  0  0  0  0  4           0  0  0
   -2.8197    0.0123    0.1589 C   0  0  0  0  0  4           0  0  0
  -12.6412    1.7465    2.6570 C   0  0  0  0  0  4           0  0  0
  -14.6702    1.5154    1.3496 C   0  0  0  0  0  4           0  0  0
   -0.7927   -0.0125   -1.1550 C   0  0  0  0  0  4           0  0  0
   -2.0142    0.0046    1.3272 C   0  0  0  0  0  4           0  0  0
  -13.1782   -0.3713    1.6177 C   0  0  0  0  0  4           0  0  0
  -14.3490    0.1844    1.0930 C   0  0  0  0  0  4           0  0  0
  -10.6672   -1.3979    2.7995 C   0  0  0  0  0  4           0  0  0
    1.9787   -0.6451   -1.1173 C   0  0  0  0  0  4           0  0  0
    4.2973    1.2636   -7.3093 C   0  0  0  0  0  4           0  0  0
   -0.4295   -0.0023    3.6076 C   0  0  0  0  0  4           0  0  0
    4.2691   -1.2196   -2.1124 C   0  0  0  0  0  4           0  0  0
    4.3204    0.8067   -3.4465 C   0  0  0  0  0  4           0  0  0
    4.6961   -1.3537   -4.4755 C   0  0  0  0  0  4           0  0  0
   -9.3572   -1.6429    3.5137 C   0  0  0  0  0  4           0  0  0
    4.6916    0.6999   -5.9486 C   0  0  1  0  0  4           0  0  0
    3.4928   -0.5602   -0.9704 C   0  0  0  0  0  4           0  0  0
    3.9902    1.4386   -4.8013 C   0  0  0  0  0  4           0  0  0
    4.3743   -0.7953   -5.8629 C   0  0  0  0  0  4           0  0  0
  1 13  1  0     0  0
  1 14  1  0     0  0
  2 15  1  0     0  0
  3 16  1  0     0  0
  3 31  1  0     0  0
  4 17  1  0     0  0
  4 33  1  0     0  0
  5 30  2  0     0  0
  6 32  1  0     0  0
  7 13  2  0     0  0
  7 21  1  0     0  0
  8 18  1  0     0  0
  8 19  2  0     0  0
  9 18  2  0     0  0
  9 20  1  0     0  0
 10 13  1  0     0  0
 10 19  1  0     0  0
 11 22  1  0     0  0
 11 30  1  0     0  0
 12 34  1  0     0  0
 12 35  1  0     0  0
 12 36  1  0     0  0
 14 21  2  0     0  0
 14 37  1  0     0  0
 15 24  2  0     0  0
 15 25  1  0     0  0
 16 17  2  0     0  0
 16 26  1  0     0  0
 17 27  1  0     0  0
 19 23  1  0     0  0
 20 23  1  0     0  0
 20 26  2  0     0  0
 22 24  1  0     0  0
 22 28  2  0     0  0
 23 27  2  0     0  0
 25 29  2  0     0  0
 28 29  1  0     0  0
 30 37  1  0     0  0
 31 39  1  0     0  0
 32 38  1  0     0  0
 34 39  1  0     0  0
 35 40  1  0     0  0
 36 41  1  0     0  0
 38 40  1  0     0  0
 38 41  1  0     0  0
M  END
> <standard_type>
pIC50

> <# Confs.>
25

> <canonical_smiles>
FC1=CC(NC(CC2=CN=C(NC(C3=C4)=NC=NC3=CC(OCCCN5CCC(CO)CC5)=C4OC)S2)=O)=CC=C1

> <standard_relation>
=

> <Publication_ID>
nan

> <predicted_activity_value>
8.013228265733755

> <actual_activity_value>
8.154901959985743

> <Compound>
3

> <standard_units>
nM

> hash
6019588431572444200

$$$$
3_
XXILIB    08252103493D 0   0.00000     0.00000

 41 45  0     1  0            999 V2000
   -6.8804   -0.4089    3.1470 S   0  0  0  0  0  2           0  0  0
   -7.8365   -8.0699    6.2468 F   0  0  0  0  0  1           0  0  0
    1.3667   -0.0000    0.0000 O   0  0  0  0  0  2           0  0  0
    0.2177   -0.0024    2.3373 O   0  0  0  0  0  2           0  0  0
  -10.5800   -3.4586    2.5304 O   0  0  0  0  0  2           0  0  0
    4.9476    7.5396   -3.6848 O   0  0  0  0  0  2           0  0  0
   -6.8794   -1.1959    0.6986 N   0  0  0  0  0  3           0  0  0
   -4.9314   -0.0106   -1.0184 N   0  0  0  0  0  3           0  0  0
   -2.8735   -0.0286   -2.2467 N   0  0  0  0  0  3           0  0  0
   -4.9501    0.0475    1.3655 N   0  0  0  0  0  3           0  0  0
   -9.0601   -3.9301    4.2251 N   0  0  0  0  0  3           0  0  0
    3.9770    2.6485   -2.2502 N   0  0  1  0  0  3           0  0  0
   -6.1570   -0.5277    1.5781 C   0  0  0  0  0  4           0  0  0
   -8.2256   -1.3195    2.6072 C   0  0  0  0  0  4           0  0  0
   -8.5722   -7.4075    5.3430 C   0  0  0  0  0  4           0  0  0
    0.0000    0.0000    0.0000 C   0  0  0  0  0  4           0  0  0
   -0.6166    0.0000    1.2550 C   0  0  0  0  0  4           0  0  0
   -4.2104   -0.0337   -2.1473 C   0  0  0  0  0  4           0  0  0
   -4.2389    0.0348    0.1470 C   0  0  0  0  0  4           0  0  0
   -2.1847   -0.0091   -1.0980 C   0  0  0  0  0  4           0  0  0
   -8.0477   -1.6451    1.2796 C   0  0  0  0  0  4           0  0  0
   -9.2126   -5.3277    4.3006 C   0  0  0  0  0  4           0  0  0
   -2.8197    0.0123    0.1589 C   0  0  0  0  0  4           0  0  0
   -8.4480   -6.0237    5.2423 C   0  0  0  0  0  4           0  0  0
   -9.4457   -8.1130    4.5220 C   0  0  0  0  0  4           0  0  0
   -0.7927   -0.0125   -1.1550 C   0  0  0  0  0  4           0  0  0
   -2.0142    0.0046    1.3272 C   0  0  0  0  0  4           0  0  0
  -10.0961   -6.0320    3.4713 C   0  0  0  0  0  4           0  0  0
  -10.2105   -7.4208    3.5858 C   0  0  0  0  0  4           0  0  0
   -9.7388   -3.0971    3.3523 C   0  0  0  0  0  4           0  0  0
    1.9787    0.6451   -1.1173 C   0  0  0  0  0  4           0  0  0
    4.2973    6.9619   -2.5604 C   0  0  0  0  0  4           0  0  0
   -0.4295   -0.0023    3.6076 C   0  0  0  0  0  4           0  0  0
    4.2691    1.2196   -2.1124 C   0  0  0  0  0  4           0  0  0
    4.3204    3.3881   -1.0246 C   0  0  0  0  0  4           0  0  0
    4.6961    3.1991   -3.4101 C   0  0  0  0  0  4           0  0  0
   -9.3572   -1.6429    3.5137 C   0  0  0  0  0  4           0  0  0
    4.6916    5.5016   -2.3682 C   0  0  1  0  0  4           0  0  0
    3.4928    0.5602   -0.9704 C   0  0  0  0  0  4           0  0  0
    3.9902    4.8774   -1.1548 C   0  0  0  0  0  4           0  0  0
    4.3743    4.6798   -3.6202 C   0  0  0  0  0  4           0  0  0
  1 13  1  0     0  0
  1 14  1  0     0  0
  2 15  1  0     0  0
  3 16  1  0     0  0
  3 31  1  0     0  0
  4 17  1  0     0  0
  4 33  1  0     0  0
  5 30  2  0     0  0
  6 32  1  0     0  0
  7 13  2  0     0  0
  7 21  1  0     0  0
  8 18  1  0     0  0
  8 19  2  0     0  0
  9 18  2  0     0  0
  9 20  1  0     0  0
 10 13  1  0     0  0
 10 19  1  0     0  0
 11 22  1  0     0  0
 11 30  1  0     0  0
 12 34  1  0     0  0
 12 35  1  0     0  0
 12 36  1  0     0  0
 14 21  2  0     0  0
 14 37  1  0     0  0
 15 24  2  0     0  0
 15 25  1  0     0  0
 16 17  2  0     0  0
 16 26  1  0     0  0
 17 27  1  0     0  0
 19 23  1  0     0  0
 20 23  1  0     0  0
 20 26  2  0     0  0
 22 24  1  0     0  0
 22 28  2  0     0  0
 23 27  2  0     0  0
 25 29  2  0     0  0
 28 29  1  0     0  0
 30 37  1  0     0  0
 31 39  1  0     0  0
 32 38  1  0     0  0
 34 39  1  0     0  0
 35 40  1  0     0  0
 36 41  1  0     0  0
 38 40  1  0     0  0
 38 41  1  0     0  0
M  END
> <standard_type>
pIC50

> <# Confs.>
25

> <canonical_smiles>
FC1=CC(NC(CC2=CN=C(NC(C3=C4)=NC=NC3=CC(OCCCN5CCC(CO)CC5)=C4OC)S2)=O)=CC=C1

> <standard_relation>
=

> <Publication_ID>
nan

> <predicted_activity_value>
8.013228265733755

> <actual_activity_value>
8.154901959985743

> <Compound>
3

> <standard_units>
nM

> hash
6019588431572444200

$$$$
20_
XXILIB    08252103493D 0   0.00000     0.00000

 35 39  0     1  0            999 V2000
    1.7144    0.0000   -2.2911 O   0  0  0  0  0  2           0  0  0
   -3.8225   -0.0421   -4.5852 O   0  0  0  0  0  2           0  0  0
   -1.2782   -1.4069   -5.6248 O   0  0  0  0  0  2           0  0  0
   -2.0475   -0.0071    0.6334 N   0  0  0  0  0  3           0  0  0
   -0.7770   -0.0000    1.1066 N   0  0  0  0  0  3           0  0  0
    7.8299   -0.0799   -0.4542 N   0  0  2  0  0  3           0  0  0
    1.3878    0.0000    0.0000 N   0  0  0  0  0  3           0  0  0
   -2.1944   -0.0206   -2.9547 N   0  0  1  0  0  3           0  0  0
   10.6518    0.0929   -0.0614 N   0  0  2  0  0  3           0  0  0
    0.0000    0.0000    0.0000 C   0  0  0  0  0  4           0  0  0
   -2.0797   -0.0078   -0.7113 C   0  0  0  0  0  4           0  0  0
    6.4589   -0.0503   -0.6135 C   0  0  0  0  0  4           0  0  0
   -0.7943   -0.0032   -1.1543 C   0  0  0  0  0  4           0  0  0
    3.6246    0.0010   -0.9384 C   0  0  0  0  0  4           0  0  0
   -2.0559    0.6582   -6.5990 C   0  0  0  0  0  4           0  0  0
    5.8339   -0.5788   -1.7577 C   0  0  0  0  0  4           0  0  0
    5.6099    0.5090    0.3593 C   0  0  0  0  0  4           0  0  0
    4.4427   -0.5566   -1.9222 C   0  0  0  0  0  4           0  0  0
    4.2166    0.5374    0.2058 C   0  0  0  0  0  4           0  0  0
   -1.8116    2.0241   -6.8102 C   0  0  0  0  0  4           0  0  0
   -2.7571   -0.0590   -7.5788 C   0  0  0  0  0  4           0  0  0
   -2.2644    2.6567   -7.9692 C   0  0  0  0  0  4           0  0  0
   -3.2098    0.5754   -8.7371 C   0  0  0  0  0  4           0  0  0
   -2.9637    1.9326   -8.9322 C   0  0  0  0  0  4           0  0  0
    2.1565    0.0000   -1.1440 C   0  0  0  0  0  4           0  0  0
   -2.6286   -0.0316   -4.2693 C   0  0  0  0  0  4           0  0  0
   -1.5663   -0.0437   -5.3574 C   0  0  1  0  0  4           0  0  0
    0.0673   -1.6128   -6.0334 C   0  0  0  0  0  4           0  0  0
   -3.0974   -0.0199   -1.7568 C   0  0  0  0  0  4           0  0  0
   -0.7336   -0.0112   -2.6184 C   0  0  0  0  0  4           0  0  0
    8.3887   -0.1602    0.8996 C   0  0  0  0  0  4           0  0  0
    8.6796    0.5287   -1.4838 C   0  0  0  0  0  4           0  0  0
    9.8258   -0.6835    0.8700 C   0  0  0  0  0  4           0  0  0
   10.1050   -0.0226   -1.4178 C   0  0  0  0  0  4           0  0  0
   12.0384   -0.3704   -0.0257 C   0  0  0  0  0  4           0  0  0
  1 25  2  0     0  0
  2 26  2  0     0  0
  3 27  1  0     0  0
  3 28  1  0     0  0
  4  5  1  0     0  0
  4 11  1  0     0  0
  5 10  2  0     0  0
  6 12  1  0     0  0
  6 31  1  0     0  0
  6 32  1  0     0  0
  7 10  1  0     0  0
  7 25  1  0     0  0
  8 26  1  0     0  0
  8 29  1  0     0  0
  8 30  1  0     0  0
  9 33  1  0     0  0
  9 34  1  0     0  0
  9 35  1  0     0  0
 10 13  1  0     0  0
 11 13  2  0     0  0
 11 29  1  0     0  0
 12 16  2  0     0  0
 12 17  1  0     0  0
 13 30  1  0     0  0
 14 18  2  0     0  0
 14 19  1  0     0  0
 14 25  1  0     0  0
 15 20  2  0     0  0
 15 21  1  0     0  0
 15 27  1  0     0  0
 16 18  1  0     0  0
 17 19  2  0     0  0
 20 22  1  0     0  0
 21 23  2  0     0  0
 22 24  2  0     0  0
 23 24  1  0     0  0
 26 27  1  0     0  0
 31 33  1  0     0  0
 32 34  1  0     0  0
M  END
> <standard_type>
pIC50

> <# Confs.>
25

> <canonical_smiles>
CN(CC1)CCN1C2=CC=C(C(NC3=NNC4=C3CN(C([C@H](C5=CC=CC=C5)OC)=O)C4)=O)C=C2

> <standard_relation>
=

> <Publication_ID>
nan

> <predicted_activity_value>
6.2839966563652006

> <actual_activity_value>
6.200659450546418

> <Compound>
20

> <standard_units>
nM

> hash
7939965660355082475

$$$$
20_
XXILIB    08252103493D 0   0.00000     0.00000

 35 39  0     1  0            999 V2000
    1.7144   -0.0000   -2.2911 O   0  0  0  0  0  2           0  0  0
   -3.8225   -0.0421   -4.5852 O   0  0  0  0  0  2           0  0  0
   -1.2782   -1.4069   -5.6248 O   0  0  0  0  0  2           0  0  0
   -2.0475   -0.0071    0.6334 N   0  0  0  0  0  3           0  0  0
   -0.7770   -0.0000    1.1066 N   0  0  0  0  0  3           0  0  0
    7.8333    0.0386   -0.4788 N   0  0  2  0  0  3           0  0  0
    1.3878   -0.0000   -0.0000 N   0  0  0  0  0  3           0  0  0
   -2.1944   -0.0206   -2.9547 N   0  0  1  0  0  3           0  0  0
   10.6359    0.1430    0.0519 N   0  0  2  0  0  3           0  0  0
    0.0000    0.0000    0.0000 C   0  0  0  0  0  4           0  0  0
   -2.0797   -0.0078   -0.7113 C   0  0  0  0  0  4           0  0  0
    6.4607    0.0294   -0.6269 C   0  0  0  0  0  4           0  0  0
   -0.7943   -0.0032   -1.1543 C   0  0  0  0  0  4           0  0  0
    3.6246    0.0010   -0.9384 C   0  0  0  0  0  4           0  0  0
   -2.0559    0.6582   -6.5990 C   0  0  0  0  0  4           0  0  0
    5.8344    0.5652   -1.7671 C   0  0  0  0  0  4           0  0  0
    5.6115   -0.5167    0.3530 C   0  0  0  0  0  4           0  0  0
    4.4424    0.5535   -1.9253 C   0  0  0  0  0  4           0  0  0
    4.2172   -0.5338    0.2063 C   0  0  0  0  0  4           0  0  0
   -1.8116    2.0241   -6.8102 C   0  0  0  0  0  4           0  0  0
   -2.7571   -0.0590   -7.5788 C   0  0  0  0  0  4           0  0  0
   -2.2644    2.6567   -7.9692 C   0  0  0  0  0  4           0  0  0
   -3.2098    0.5754   -8.7371 C   0  0  0  0  0  4           0  0  0
   -2.9637    1.9326   -8.9322 C   0  0  0  0  0  4           0  0  0
    2.1565    0.0000   -1.1440 C   0  0  0  0  0  4           0  0  0
   -2.6286   -0.0316   -4.2693 C   0  0  0  0  0  4           0  0  0
   -1.5663   -0.0437   -5.3574 C   0  0  1  0  0  4           0  0  0
    0.0673   -1.6128   -6.0334 C   0  0  0  0  0  4           0  0  0
   -3.0974   -0.0199   -1.7568 C   0  0  0  0  0  4           0  0  0
   -0.7336   -0.0112   -2.6184 C   0  0  0  0  0  4           0  0  0
    8.4740   -1.0303    0.2946 C   0  0  0  0  0  4           0  0  0
    8.5492    1.3168   -0.5568 C   0  0  0  0  0  4           0  0  0
    9.9566   -1.1525   -0.0616 C   0  0  0  0  0  4           0  0  0
   10.0288    1.1003   -0.8793 C   0  0  0  0  0  4           0  0  0
   12.0654   -0.0019   -0.2203 C   0  0  0  0  0  4           0  0  0
  1 25  2  0     0  0
  2 26  2  0     0  0
  3 27  1  0     0  0
  3 28  1  0     0  0
  4  5  1  0     0  0
  4 11  1  0     0  0
  5 10  2  0     0  0
  6 12  1  0     0  0
  6 31  1  0     0  0
  6 32  1  0     0  0
  7 10  1  0     0  0
  7 25  1  0     0  0
  8 26  1  0     0  0
  8 29  1  0     0  0
  8 30  1  0     0  0
  9 33  1  0     0  0
  9 34  1  0     0  0
  9 35  1  0     0  0
 10 13  1  0     0  0
 11 13  2  0     0  0
 11 29  1  0     0  0
 12 16  2  0     0  0
 12 17  1  0     0  0
 13 30  1  0     0  0
 14 18  2  0     0  0
 14 19  1  0     0  0
 14 25  1  0     0  0
 15 20  2  0     0  0
 15 21  1  0     0  0
 15 27  1  0     0  0
 16 18  1  0     0  0
 17 19  2  0     0  0
 20 22  1  0     0  0
 21 23  2  0     0  0
 22 24  2  0     0  0
 23 24  1  0     0  0
 26 27  1  0     0  0
 31 33  1  0     0  0
 32 34  1  0     0  0
M  END
> <standard_type>
pIC50

> <# Confs.>
25

> <canonical_smiles>
CN(CC1)CCN1C2=CC=C(C(NC3=NNC4=C3CN(C([C@H](C5=CC=CC=C5)OC)=O)C4)=O)C=C2

> <standard_relation>
=

> <Publication_ID>
nan

> <predicted_activity_value>
6.2839966563652006

> <actual_activity_value>
6.200659450546418

> <Compound>
20

> <standard_units>
nM

> hash
7939965660355082475

$$$$
20_
XXILIB    08252103493D 0   0.00000     0.00000

 35 39  0     1  0            999 V2000
    1.7144    0.0000   -2.2911 O   0  0  0  0  0  2           0  0  0
   -1.8577   -0.0317   -5.2343 O   0  0  0  0  0  2           0  0  0
   -4.5275    1.3299   -4.5744 O   0  0  0  0  0  2           0  0  0
   -2.0475   -0.0071    0.6334 N   0  0  0  0  0  3           0  0  0
   -0.7770   -0.0000    1.1066 N   0  0  0  0  0  3           0  0  0
    7.8299   -0.0799   -0.4542 N   0  0  2  0  0  3           0  0  0
    1.3878    0.0000    0.0000 N   0  0  0  0  0  3           0  0  0
   -2.1944   -0.0206   -2.9547 N   0  0  1  0  0  3           0  0  0
   10.6518    0.0929   -0.0614 N   0  0  2  0  0  3           0  0  0
    0.0000    0.0000    0.0000 C   0  0  0  0  0  4           0  0  0
   -2.0797   -0.0078   -0.7113 C   0  0  0  0  0  4           0  0  0
    6.4589   -0.0503   -0.6135 C   0  0  0  0  0  4           0  0  0
   -0.7943   -0.0032   -1.1543 C   0  0  0  0  0  4           0  0  0
    3.6246    0.0010   -0.9384 C   0  0  0  0  0  4           0  0  0
   -4.4727   -0.7535   -5.7889 C   0  0  0  0  0  4           0  0  0
    5.8339   -0.5788   -1.7577 C   0  0  0  0  0  4           0  0  0
    5.6099    0.5090    0.3593 C   0  0  0  0  0  4           0  0  0
    4.4427   -0.5566   -1.9222 C   0  0  0  0  0  4           0  0  0
    4.2166    0.5374    0.2058 C   0  0  0  0  0  4           0  0  0
   -4.7880   -2.1212   -5.7924 C   0  0  0  0  0  4           0  0  0
   -4.4966   -0.0546   -7.0043 C   0  0  0  0  0  4           0  0  0
   -5.1114   -2.7735   -6.9835 C   0  0  0  0  0  4           0  0  0
   -4.8197   -0.7086   -8.1946 C   0  0  0  0  0  4           0  0  0
   -5.1268   -2.0674   -8.1843 C   0  0  0  0  0  4           0  0  0
    2.1565    0.0000   -1.1440 C   0  0  0  0  0  4           0  0  0
   -2.6286   -0.0316   -4.2693 C   0  0  0  0  0  4           0  0  0
   -4.1300   -0.0306   -4.5107 C   0  0  1  0  0  4           0  0  0
   -5.8527    1.5363   -4.1042 C   0  0  0  0  0  4           0  0  0
   -3.0974   -0.0199   -1.7568 C   0  0  0  0  0  4           0  0  0
   -0.7336   -0.0112   -2.6184 C   0  0  0  0  0  4           0  0  0
    8.3887   -0.1602    0.8996 C   0  0  0  0  0  4           0  0  0
    8.6796    0.5287   -1.4838 C   0  0  0  0  0  4           0  0  0
    9.8258   -0.6835    0.8700 C   0  0  0  0  0  4           0  0  0
   10.1050   -0.0226   -1.4178 C   0  0  0  0  0  4           0  0  0
   12.0384   -0.3704   -0.0257 C   0  0  0  0  0  4           0  0  0
  1 25  2  0     0  0
  2 26  2  0     0  0
  3 27  1  0     0  0
  3 28  1  0     0  0
  4  5  1  0     0  0
  4 11  1  0     0  0
  5 10  2  0     0  0
  6 12  1  0     0  0
  6 31  1  0     0  0
  6 32  1  0     0  0
  7 10  1  0     0  0
  7 25  1  0     0  0
  8 26  1  0     0  0
  8 29  1  0     0  0
  8 30  1  0     0  0
  9 33  1  0     0  0
  9 34  1  0     0  0
  9 35  1  0     0  0
 10 13  1  0     0  0
 11 13  2  0     0  0
 11 29  1  0     0  0
 12 16  2  0     0  0
 12 17  1  0     0  0
 13 30  1  0     0  0
 14 18  2  0     0  0
 14 19  1  0     0  0
 14 25  1  0     0  0
 15 20  2  0     0  0
 15 21  1  0     0  0
 15 27  1  0     0  0
 16 18  1  0     0  0
 17 19  2  0     0  0
 20 22  1  0     0  0
 21 23  2  0     0  0
 22 24  2  0     0  0
 23 24  1  0     0  0
 26 27  1  0     0  0
 31 33  1  0     0  0
 32 34  1  0     0  0
M  END
> <standard_type>
pIC50

> <# Confs.>
25

> <canonical_smiles>
CN(CC1)CCN1C2=CC=C(C(NC3=NNC4=C3CN(C([C@H](C5=CC=CC=C5)OC)=O)C4)=O)C=C2

> <standard_relation>
=

> <Publication_ID>
nan

> <predicted_activity_value>
6.2839966563652006

> <actual_activity_value>
6.200659450546418

> <Compound>
20

> <standard_units>
nM

> hash
7939965660355082475

$$$$
20_
XXILIB    08252103493D 0   0.00000     0.00000

 35 39  0     1  0            999 V2000
    1.7144   -0.0000   -2.2911 O   0  0  0  0  0  2           0  0  0
   -1.8577   -0.0317   -5.2343 O   0  0  0  0  0  2           0  0  0
   -4.5275    1.3299   -4.5744 O   0  0  0  0  0  2           0  0  0
   -2.0475   -0.0071    0.6334 N   0  0  0  0  0  3           0  0  0
   -0.7770   -0.0000    1.1066 N   0  0  0  0  0  3           0  0  0
    7.8333    0.0386   -0.4788 N   0  0  2  0  0  3           0  0  0
    1.3878   -0.0000   -0.0000 N   0  0  0  0  0  3           0  0  0
   -2.1944   -0.0206   -2.9547 N   0  0  1  0  0  3           0  0  0
   10.6359    0.1430    0.0519 N   0  0  2  0  0  3           0  0  0
    0.0000    0.0000    0.0000 C   0  0  0  0  0  4           0  0  0
   -2.0797   -0.0078   -0.7113 C   0  0  0  0  0  4           0  0  0
    6.4607    0.0294   -0.6269 C   0  0  0  0  0  4           0  0  0
   -0.7943   -0.0032   -1.1543 C   0  0  0  0  0  4           0  0  0
    3.6246    0.0010   -0.9384 C   0  0  0  0  0  4           0  0  0
   -4.4727   -0.7535   -5.7889 C   0  0  0  0  0  4           0  0  0
    5.8344    0.5652   -1.7671 C   0  0  0  0  0  4           0  0  0
    5.6115   -0.5167    0.3530 C   0  0  0  0  0  4           0  0  0
    4.4424    0.5535   -1.9253 C   0  0  0  0  0  4           0  0  0
    4.2172   -0.5338    0.2063 C   0  0  0  0  0  4           0  0  0
   -4.7880   -2.1212   -5.7924 C   0  0  0  0  0  4           0  0  0
   -4.4966   -0.0546   -7.0043 C   0  0  0  0  0  4           0  0  0
   -5.1114   -2.7735   -6.9835 C   0  0  0  0  0  4           0  0  0
   -4.8197   -0.7086   -8.1946 C   0  0  0  0  0  4           0  0  0
   -5.1268   -2.0674   -8.1843 C   0  0  0  0  0  4           0  0  0
    2.1565    0.0000   -1.1440 C   0  0  0  0  0  4           0  0  0
   -2.6286   -0.0316   -4.2693 C   0  0  0  0  0  4           0  0  0
   -4.1300   -0.0306   -4.5107 C   0  0  1  0  0  4           0  0  0
   -5.8527    1.5363   -4.1042 C   0  0  0  0  0  4           0  0  0
   -3.0974   -0.0199   -1.7568 C   0  0  0  0  0  4           0  0  0
   -0.7336   -0.0112   -2.6184 C   0  0  0  0  0  4           0  0  0
    8.4740   -1.0303    0.2946 C   0  0  0  0  0  4           0  0  0
    8.5492    1.3168   -0.5568 C   0  0  0  0  0  4           0  0  0
    9.9566   -1.1525   -0.0616 C   0  0  0  0  0  4           0  0  0
   10.0288    1.1003   -0.8793 C   0  0  0  0  0  4           0  0  0
   12.0654   -0.0019   -0.2203 C   0  0  0  0  0  4           0  0  0
  1 25  2  0     0  0
  2 26  2  0     0  0
  3 27  1  0     0  0
  3 28  1  0     0  0
  4  5  1  0     0  0
  4 11  1  0     0  0
  5 10  2  0     0  0
  6 12  1  0     0  0
  6 31  1  0     0  0
  6 32  1  0     0  0
  7 10  1  0     0  0
  7 25  1  0     0  0
  8 26  1  0     0  0
  8 29  1  0     0  0
  8 30  1  0     0  0
  9 33  1  0     0  0
  9 34  1  0     0  0
  9 35  1  0     0  0
 10 13  1  0     0  0
 11 13  2  0     0  0
 11 29  1  0     0  0
 12 16  2  0     0  0
 12 17  1  0     0  0
 13 30  1  0     0  0
 14 18  2  0     0  0
 14 19  1  0     0  0
 14 25  1  0     0  0
 15 20  2  0     0  0
 15 21  1  0     0  0
 15 27  1  0     0  0
 16 18  1  0     0  0
 17 19  2  0     0  0
 20 22  1  0     0  0
 21 23  2  0     0  0
 22 24  2  0     0  0
 23 24  1  0     0  0
 26 27  1  0     0  0
 31 33  1  0     0  0
 32 34  1  0     0  0
M  END
> <standard_type>
pIC50

> <# Confs.>
25

> <canonical_smiles>
CN(CC1)CCN1C2=CC=C(C(NC3=NNC4=C3CN(C([C@H](C5=CC=CC=C5)OC)=O)C4)=O)C=C2

> <standard_relation>
=

> <Publication_ID>
nan

> <predicted_activity_value>
6.2839966563652006

> <actual_activity_value>
6.200659450546418

> <Compound>
20

> <standard_units>
nM

> hash
7939965660355082475

$$$$
20_
XXILIB    08252103493D 0   0.00000     0.00000

 35 39  0     1  0            999 V2000
    1.7144    0.0000   -2.2911 O   0  0  0  0  0  2           0  0  0
   -1.8577   -0.0317   -5.2343 O   0  0  0  0  0  2           0  0  0
   -4.3409    0.6500   -5.7376 O   0  0  0  0  0  2           0  0  0
   -2.0475   -0.0071    0.6334 N   0  0  0  0  0  3           0  0  0
   -0.7770    0.0000    1.1066 N   0  0  0  0  0  3           0  0  0
    7.8299   -0.0799   -0.4542 N   0  0  2  0  0  3           0  0  0
    1.3878    0.0000    0.0000 N   0  0  0  0  0  3           0  0  0
   -2.1944   -0.0206   -2.9547 N   0  0  1  0  0  3           0  0  0
   10.6518    0.0929   -0.0614 N   0  0  2  0  0  3           0  0  0
    0.0000    0.0000    0.0000 C   0  0  0  0  0  4           0  0  0
   -2.0797   -0.0078   -0.7113 C   0  0  0  0  0  4           0  0  0
    6.4589   -0.0503   -0.6135 C   0  0  0  0  0  4           0  0  0
   -0.7943   -0.0032   -1.1543 C   0  0  0  0  0  4           0  0  0
    3.6246    0.0010   -0.9384 C   0  0  0  0  0  4           0  0  0
   -4.6685   -1.4376   -4.5744 C   0  0  0  0  0  4           0  0  0
    5.8339   -0.5788   -1.7577 C   0  0  0  0  0  4           0  0  0
    5.6099    0.5090    0.3593 C   0  0  0  0  0  4           0  0  0
    4.4427   -0.5566   -1.9222 C   0  0  0  0  0  4           0  0  0
    4.2166    0.5374    0.2058 C   0  0  0  0  0  4           0  0  0
   -3.8628   -2.5099   -4.9879 C   0  0  0  0  0  4           0  0  0
   -5.9947   -1.6978   -4.2007 C   0  0  0  0  0  4           0  0  0
   -4.3745   -3.8079   -5.0331 C   0  0  0  0  0  4           0  0  0
   -6.5051   -2.9964   -4.2471 C   0  0  0  0  0  4           0  0  0
   -5.6954   -4.0510   -4.6631 C   0  0  0  0  0  4           0  0  0
    2.1565    0.0000   -1.1440 C   0  0  0  0  0  4           0  0  0
   -2.6286   -0.0316   -4.2693 C   0  0  0  0  0  4           0  0  0
   -4.1300   -0.0306   -4.5107 C   0  0  1  0  0  4           0  0  0
   -4.5041    2.0514   -5.5660 C   0  0  0  0  0  4           0  0  0
   -3.0974   -0.0199   -1.7568 C   0  0  0  0  0  4           0  0  0
   -0.7336   -0.0112   -2.6184 C   0  0  0  0  0  4           0  0  0
    8.3887   -0.1602    0.8996 C   0  0  0  0  0  4           0  0  0
    8.6796    0.5287   -1.4838 C   0  0  0  0  0  4           0  0  0
    9.8258   -0.6835    0.8700 C   0  0  0  0  0  4           0  0  0
   10.1050   -0.0226   -1.4178 C   0  0  0  0  0  4           0  0  0
   12.0384   -0.3704   -0.0257 C   0  0  0  0  0  4           0  0  0
  1 25  2  0     0  0
  2 26  2  0     0  0
  3 27  1  0     0  0
  3 28  1  0     0  0
  4  5  1  0     0  0
  4 11  1  0     0  0
  5 10  2  0     0  0
  6 12  1  0     0  0
  6 31  1  0     0  0
  6 32  1  0     0  0
  7 10  1  0     0  0
  7 25  1  0     0  0
  8 26  1  0     0  0
  8 29  1  0     0  0
  8 30  1  0     0  0
  9 33  1  0     0  0
  9 34  1  0     0  0
  9 35  1  0     0  0
 10 13  1  0     0  0
 11 13  2  0     0  0
 11 29  1  0     0  0
 12 16  2  0     0  0
 12 17  1  0     0  0
 13 30  1  0     0  0
 14 18  2  0     0  0
 14 19  1  0     0  0
 14 25  1  0     0  0
 15 20  2  0     0  0
 15 21  1  0     0  0
 15 27  1  0     0  0
 16 18  1  0     0  0
 17 19  2  0     0  0
 20 22  1  0     0  0
 21 23  2  0     0  0
 22 24  2  0     0  0
 23 24  1  0     0  0
 26 27  1  0     0  0
 31 33  1  0     0  0
 32 34  1  0     0  0
M  END
> <standard_type>
pIC50

> <# Confs.>
25

> <canonical_smiles>
CN(CC1)CCN1C2=CC=C(C(NC3=NNC4=C3CN(C([C@H](C5=CC=CC=C5)OC)=O)C4)=O)C=C2

> <standard_relation>
=

> <Publication_ID>
nan

> <predicted_activity_value>
6.2839966563652006

> <actual_activity_value>
6.200659450546418

> <Compound>
20

> <standard_units>
nM

> hash
7939965660355082475

$$$$
20_
XXILIB    08252103493D 0   0.00000     0.00000

 35 39  0     1  0            999 V2000
    1.7144   -0.0000   -2.2911 O   0  0  0  0  0  2           0  0  0
   -1.8577   -0.0317   -5.2343 O   0  0  0  0  0  2           0  0  0
   -4.3409    0.6500   -5.7376 O   0  0  0  0  0  2           0  0  0
   -2.0475   -0.0071    0.6334 N   0  0  0  0  0  3           0  0  0
   -0.7770    0.0000    1.1066 N   0  0  0  0  0  3           0  0  0
    7.8333    0.0386   -0.4788 N   0  0  2  0  0  3           0  0  0
    1.3878   -0.0000   -0.0000 N   0  0  0  0  0  3           0  0  0
   -2.1944   -0.0206   -2.9547 N   0  0  1  0  0  3           0  0  0
   10.6359    0.1430    0.0519 N   0  0  2  0  0  3           0  0  0
    0.0000    0.0000    0.0000 C   0  0  0  0  0  4           0  0  0
   -2.0797   -0.0078   -0.7113 C   0  0  0  0  0  4           0  0  0
    6.4607    0.0294   -0.6269 C   0  0  0  0  0  4           0  0  0
   -0.7943   -0.0032   -1.1543 C   0  0  0  0  0  4           0  0  0
    3.6246    0.0010   -0.9384 C   0  0  0  0  0  4           0  0  0
   -4.6685   -1.4376   -4.5744 C   0  0  0  0  0  4           0  0  0
    5.8344    0.5652   -1.7671 C   0  0  0  0  0  4           0  0  0
    5.6115   -0.5167    0.3530 C   0  0  0  0  0  4           0  0  0
    4.4424    0.5535   -1.9253 C   0  0  0  0  0  4           0  0  0
    4.2172   -0.5338    0.2063 C   0  0  0  0  0  4           0  0  0
   -3.8628   -2.5099   -4.9879 C   0  0  0  0  0  4           0  0  0
   -5.9947   -1.6978   -4.2007 C   0  0  0  0  0  4           0  0  0
   -4.3745   -3.8079   -5.0331 C   0  0  0  0  0  4           0  0  0
   -6.5051   -2.9964   -4.2471 C   0  0  0  0  0  4           0  0  0
   -5.6954   -4.0510   -4.6631 C   0  0  0  0  0  4           0  0  0
    2.1565    0.0000   -1.1440 C   0  0  0  0  0  4           0  0  0
   -2.6286   -0.0316   -4.2693 C   0  0  0  0  0  4           0  0  0
   -4.1300   -0.0306   -4.5107 C   0  0  1  0  0  4           0  0  0
   -4.5041    2.0514   -5.5660 C   0  0  0  0  0  4           0  0  0
   -3.0974   -0.0199   -1.7568 C   0  0  0  0  0  4           0  0  0
   -0.7336   -0.0112   -2.6184 C   0  0  0  0  0  4           0  0  0
    8.4740   -1.0303    0.2946 C   0  0  0  0  0  4           0  0  0
    8.5492    1.3168   -0.5568 C   0  0  0  0  0  4           0  0  0
    9.9566   -1.1525   -0.0616 C   0  0  0  0  0  4           0  0  0
   10.0288    1.1003   -0.8793 C   0  0  0  0  0  4           0  0  0
   12.0654   -0.0019   -0.2203 C   0  0  0  0  0  4           0  0  0
  1 25  2  0     0  0
  2 26  2  0     0  0
  3 27  1  0     0  0
  3 28  1  0     0  0
  4  5  1  0     0  0
  4 11  1  0     0  0
  5 10  2  0     0  0
  6 12  1  0     0  0
  6 31  1  0     0  0
  6 32  1  0     0  0
  7 10  1  0     0  0
  7 25  1  0     0  0
  8 26  1  0     0  0
  8 29  1  0     0  0
  8 30  1  0     0  0
  9 33  1  0     0  0
  9 34  1  0     0  0
  9 35  1  0     0  0
 10 13  1  0     0  0
 11 13  2  0     0  0
 11 29  1  0     0  0
 12 16  2  0     0  0
 12 17  1  0     0  0
 13 30  1  0     0  0
 14 18  2  0     0  0
 14 19  1  0     0  0
 14 25  1  0     0  0
 15 20  2  0     0  0
 15 21  1  0     0  0
 15 27  1  0     0  0
 16 18  1  0     0  0
 17 19  2  0     0  0
 20 22  1  0     0  0
 21 23  2  0     0  0
 22 24  2  0     0  0
 23 24  1  0     0  0
 26 27  1  0     0  0
 31 33  1  0     0  0
 32 34  1  0     0  0
M  END
> <standard_type>
pIC50

> <# Confs.>
25

> <canonical_smiles>
CN(CC1)CCN1C2=CC=C(C(NC3=NNC4=C3CN(C([C@H](C5=CC=CC=C5)OC)=O)C4)=O)C=C2

> <standard_relation>
=

> <Publication_ID>
nan

> <predicted_activity_value>
6.2839966563652006

> <actual_activity_value>
6.200659450546418

> <Compound>
20

> <standard_units>
nM

> hash
7939965660355082475

$$$$
20_
XXILIB    08252103493D 0   0.00000     0.00000

 35 39  0     1  0            999 V2000
    1.7144    0.0000   -2.2911 O   0  0  0  0  0  2           0  0  0
   -1.8577   -0.0317   -5.2343 O   0  0  0  0  0  2           0  0  0
   -4.5275    1.3299   -4.5744 O   0  0  0  0  0  2           0  0  0
   -2.0475   -0.0071    0.6334 N   0  0  0  0  0  3           0  0  0
   -0.7770   -0.0000    1.1066 N   0  0  0  0  0  3           0  0  0
    7.8299   -0.0799   -0.4542 N   0  0  2  0  0  3           0  0  0
    1.3878    0.0000    0.0000 N   0  0  0  0  0  3           0  0  0
   -2.1944   -0.0206   -2.9547 N   0  0  1  0  0  3           0  0  0
   10.1996    1.4051    0.0344 N   0  0  2  0  0  3           0  0  0
    0.0000    0.0000    0.0000 C   0  0  0  0  0  4           0  0  0
   -2.0797   -0.0078   -0.7113 C   0  0  0  0  0  4           0  0  0
    6.4589   -0.0503   -0.6135 C   0  0  0  0  0  4           0  0  0
   -0.7943   -0.0032   -1.1543 C   0  0  0  0  0  4           0  0  0
    3.6246    0.0010   -0.9384 C   0  0  0  0  0  4           0  0  0
   -4.4727   -0.7535   -5.7889 C   0  0  0  0  0  4           0  0  0
    5.8339   -0.5788   -1.7577 C   0  0  0  0  0  4           0  0  0
    5.6099    0.5090    0.3593 C   0  0  0  0  0  4           0  0  0
    4.4427   -0.5566   -1.9222 C   0  0  0  0  0  4           0  0  0
    4.2166    0.5374    0.2058 C   0  0  0  0  0  4           0  0  0
   -4.7880   -2.1212   -5.7924 C   0  0  0  0  0  4           0  0  0
   -4.4966   -0.0546   -7.0043 C   0  0  0  0  0  4           0  0  0
   -5.1114   -2.7735   -6.9835 C   0  0  0  0  0  4           0  0  0
   -4.8197   -0.7086   -8.1946 C   0  0  0  0  0  4           0  0  0
   -5.1268   -2.0674   -8.1843 C   0  0  0  0  0  4           0  0  0
    2.1565    0.0000   -1.1440 C   0  0  0  0  0  4           0  0  0
   -2.6286   -0.0316   -4.2693 C   0  0  0  0  0  4           0  0  0
   -4.1300   -0.0306   -4.5107 C   0  0  1  0  0  4           0  0  0
   -5.8527    1.5363   -4.1042 C   0  0  0  0  0  4           0  0  0
   -3.0974   -0.0199   -1.7568 C   0  0  0  0  0  4           0  0  0
   -0.7336   -0.0112   -2.6184 C   0  0  0  0  0  4           0  0  0
    8.4654   -0.1594    0.8615 C   0  0  0  0  0  4           0  0  0
    8.7546    0.1776   -1.5583 C   0  0  0  0  0  4           0  0  0
    9.2377    1.1401    1.1175 C   0  0  0  0  0  4           0  0  0
    9.5222    1.4728   -1.2713 C   0  0  0  0  0  4           0  0  0
   10.9365    2.6409    0.2945 C   0  0  0  0  0  4           0  0  0
  1 25  2  0     0  0
  2 26  2  0     0  0
  3 27  1  0     0  0
  3 28  1  0     0  0
  4  5  1  0     0  0
  4 11  1  0     0  0
  5 10  2  0     0  0
  6 12  1  0     0  0
  6 31  1  0     0  0
  6 32  1  0     0  0
  7 10  1  0     0  0
  7 25  1  0     0  0
  8 26  1  0     0  0
  8 29  1  0     0  0
  8 30  1  0     0  0
  9 33  1  0     0  0
  9 34  1  0     0  0
  9 35  1  0     0  0
 10 13  1  0     0  0
 11 13  2  0     0  0
 11 29  1  0     0  0
 12 16  2  0     0  0
 12 17  1  0     0  0
 13 30  1  0     0  0
 14 18  2  0     0  0
 14 19  1  0     0  0
 14 25  1  0     0  0
 15 20  2  0     0  0
 15 21  1  0     0  0
 15 27  1  0     0  0
 16 18  1  0     0  0
 17 19  2  0     0  0
 20 22  1  0     0  0
 21 23  2  0     0  0
 22 24  2  0     0  0
 23 24  1  0     0  0
 26 27  1  0     0  0
 31 33  1  0     0  0
 32 34  1  0     0  0
M  END
> <standard_type>
pIC50

> <# Confs.>
25

> <canonical_smiles>
CN(CC1)CCN1C2=CC=C(C(NC3=NNC4=C3CN(C([C@H](C5=CC=CC=C5)OC)=O)C4)=O)C=C2

> <standard_relation>
=

> <Publication_ID>
nan

> <predicted_activity_value>
6.2839966563652006

> <actual_activity_value>
6.200659450546418

> <Compound>
20

> <standard_units>
nM

> hash
7939965660355082475

$$$$
20_
XXILIB    08252103493D 0   0.00000     0.00000

 35 39  0     1  0            999 V2000
    1.7144   -0.0000   -2.2911 O   0  0  0  0  0  2           0  0  0
   -1.8577   -0.0317   -5.2343 O   0  0  0  0  0  2           0  0  0
   -4.5275    1.3299   -4.5744 O   0  0  0  0  0  2           0  0  0
   -2.0475   -0.0071    0.6334 N   0  0  0  0  0  3           0  0  0
   -0.7770   -0.0000    1.1066 N   0  0  0  0  0  3           0  0  0
    7.8333    0.0386   -0.4788 N   0  0  2  0  0  3           0  0  0
    1.3878   -0.0000   -0.0000 N   0  0  0  0  0  3           0  0  0
   -2.1944   -0.0206   -2.9547 N   0  0  1  0  0  3           0  0  0
   10.0459    0.7867    1.1350 N   0  0  2  0  0  3           0  0  0
    0.0000    0.0000    0.0000 C   0  0  0  0  0  4           0  0  0
   -2.0797   -0.0078   -0.7113 C   0  0  0  0  0  4           0  0  0
    6.4607    0.0294   -0.6269 C   0  0  0  0  0  4           0  0  0
   -0.7943   -0.0032   -1.1543 C   0  0  0  0  0  4           0  0  0
    3.6246    0.0010   -0.9384 C   0  0  0  0  0  4           0  0  0
   -4.4727   -0.7535   -5.7889 C   0  0  0  0  0  4           0  0  0
    5.8344    0.5652   -1.7671 C   0  0  0  0  0  4           0  0  0
    5.6115   -0.5167    0.3530 C   0  0  0  0  0  4           0  0  0
    4.4424    0.5535   -1.9253 C   0  0  0  0  0  4           0  0  0
    4.2172   -0.5338    0.2063 C   0  0  0  0  0  4           0  0  0
   -4.7880   -2.1212   -5.7924 C   0  0  0  0  0  4           0  0  0
   -4.4966   -0.0546   -7.0043 C   0  0  0  0  0  4           0  0  0
   -5.1114   -2.7735   -6.9835 C   0  0  0  0  0  4           0  0  0
   -4.8197   -0.7086   -8.1946 C   0  0  0  0  0  4           0  0  0
   -5.1268   -2.0674   -8.1843 C   0  0  0  0  0  4           0  0  0
    2.1565    0.0000   -1.1440 C   0  0  0  0  0  4           0  0  0
   -2.6286   -0.0316   -4.2693 C   0  0  0  0  0  4           0  0  0
   -4.1300   -0.0306   -4.5107 C   0  0  1  0  0  4           0  0  0
   -5.8527    1.5363   -4.1042 C   0  0  0  0  0  4           0  0  0
   -3.0974   -0.0199   -1.7568 C   0  0  0  0  0  4           0  0  0
   -0.7336   -0.0112   -2.6184 C   0  0  0  0  0  4           0  0  0
    8.5478   -0.9907    0.2769 C   0  0  0  0  0  4           0  0  0
    8.6587    1.1785   -0.8784 C   0  0  0  0  0  4           0  0  0
    9.1832   -0.3451    1.5139 C   0  0  0  0  0  4           0  0  0
    9.2916    1.7963    0.3734 C   0  0  0  0  0  4           0  0  0
   10.6534    1.3875    2.3215 C   0  0  0  0  0  4           0  0  0
  1 25  2  0     0  0
  2 26  2  0     0  0
  3 27  1  0     0  0
  3 28  1  0     0  0
  4  5  1  0     0  0
  4 11  1  0     0  0
  5 10  2  0     0  0
  6 12  1  0     0  0
  6 31  1  0     0  0
  6 32  1  0     0  0
  7 10  1  0     0  0
  7 25  1  0     0  0
  8 26  1  0     0  0
  8 29  1  0     0  0
  8 30  1  0     0  0
  9 33  1  0     0  0
  9 34  1  0     0  0
  9 35  1  0     0  0
 10 13  1  0     0  0
 11 13  2  0     0  0
 11 29  1  0     0  0
 12 16  2  0     0  0
 12 17  1  0     0  0
 13 30  1  0     0  0
 14 18  2  0     0  0
 14 19  1  0     0  0
 14 25  1  0     0  0
 15 20  2  0     0  0
 15 21  1  0     0  0
 15 27  1  0     0  0
 16 18  1  0     0  0
 17 19  2  0     0  0
 20 22  1  0     0  0
 21 23  2  0     0  0
 22 24  2  0     0  0
 23 24  1  0     0  0
 26 27  1  0     0  0
 31 33  1  0     0  0
 32 34  1  0     0  0
M  END
> <standard_type>
pIC50

> <# Confs.>
25

> <canonical_smiles>
CN(CC1)CCN1C2=CC=C(C(NC3=NNC4=C3CN(C([C@H](C5=CC=CC=C5)OC)=O)C4)=O)C=C2

> <standard_relation>
=

> <Publication_ID>
nan

> <predicted_activity_value>
6.2839966563652006

> <actual_activity_value>
6.200659450546418

> <Compound>
20

> <standard_units>
nM

> hash
7939965660355082475

$$$$
20_
XXILIB    08252103493D 0   0.00000     0.00000

 35 39  0     1  0            999 V2000
    1.7144    0.0000   -2.2911 O   0  0  0  0  0  2           0  0  0
   -1.8577   -0.0317   -5.2343 O   0  0  0  0  0  2           0  0  0
   -4.4196    1.1478   -5.2459 O   0  0  0  0  0  2           0  0  0
   -2.0475   -0.0071    0.6334 N   0  0  0  0  0  3           0  0  0
   -0.7770    0.0000    1.1066 N   0  0  0  0  0  3           0  0  0
    7.8299   -0.0799   -0.4542 N   0  0  2  0  0  3           0  0  0
    1.3878    0.0000    0.0000 N   0  0  0  0  0  3           0  0  0
   -2.1944   -0.0206   -2.9547 N   0  0  1  0  0  3           0  0  0
   10.6259   -0.2054    0.1060 N   0  0  2  0  0  3           0  0  0
    0.0000    0.0000    0.0000 C   0  0  0  0  0  4           0  0  0
   -2.0797   -0.0078   -0.7113 C   0  0  0  0  0  4           0  0  0
    6.4589   -0.0503   -0.6135 C   0  0  0  0  0  4           0  0  0
   -0.7943   -0.0032   -1.1543 C   0  0  0  0  0  4           0  0  0
    3.6246    0.0010   -0.9384 C   0  0  0  0  0  4           0  0  0
   -4.5562   -1.2603   -5.2721 C   0  0  0  0  0  4           0  0  0
    5.8339   -0.5788   -1.7577 C   0  0  0  0  0  4           0  0  0
    5.6099    0.5090    0.3593 C   0  0  0  0  0  4           0  0  0
    4.4427   -0.5566   -1.9222 C   0  0  0  0  0  4           0  0  0
    4.2166    0.5374    0.2058 C   0  0  0  0  0  4           0  0  0
   -4.9788   -2.4215   -4.6066 C   0  0  0  0  0  4           0  0  0
   -4.5505   -1.2532   -6.6743 C   0  0  0  0  0  4           0  0  0
   -5.3783   -3.5486   -5.3267 C   0  0  0  0  0  4           0  0  0
   -4.9497   -2.3815   -7.3930 C   0  0  0  0  0  4           0  0  0
   -5.3633   -3.5287   -6.7196 C   0  0  0  0  0  4           0  0  0
    2.1565    0.0000   -1.1440 C   0  0  0  0  0  4           0  0  0
   -2.6286   -0.0316   -4.2693 C   0  0  0  0  0  4           0  0  0
   -4.1300   -0.0306   -4.5107 C   0  0  1  0  0  4           0  0  0
   -5.7139    1.6639   -4.9664 C   0  0  0  0  0  4           0  0  0
   -3.0974   -0.0199   -1.7568 C   0  0  0  0  0  4           0  0  0
   -0.7336   -0.0112   -2.6184 C   0  0  0  0  0  4           0  0  0
    8.5181   -1.3751   -0.4397 C   0  0  0  0  0  4           0  0  0
    8.4888    1.0254    0.2506 C   0  0  0  0  0  4           0  0  0
   10.0041   -1.2107   -0.7630 C   0  0  0  0  0  4           0  0  0
    9.9761    1.0935   -0.1008 C   0  0  0  0  0  4           0  0  0
   12.0601   -0.1106   -0.1639 C   0  0  0  0  0  4           0  0  0
  1 25  2  0     0  0
  2 26  2  0     0  0
  3 27  1  0     0  0
  3 28  1  0     0  0
  4  5  1  0     0  0
  4 11  1  0     0  0
  5 10  2  0     0  0
  6 12  1  0     0  0
  6 31  1  0     0  0
  6 32  1  0     0  0
  7 10  1  0     0  0
  7 25  1  0     0  0
  8 26  1  0     0  0
  8 29  1  0     0  0
  8 30  1  0     0  0
  9 33  1  0     0  0
  9 34  1  0     0  0
  9 35  1  0     0  0
 10 13  1  0     0  0
 11 13  2  0     0  0
 11 29  1  0     0  0
 12 16  2  0     0  0
 12 17  1  0     0  0
 13 30  1  0     0  0
 14 18  2  0     0  0
 14 19  1  0     0  0
 14 25  1  0     0  0
 15 20  2  0     0  0
 15 21  1  0     0  0
 15 27  1  0     0  0
 16 18  1  0     0  0
 17 19  2  0     0  0
 20 22  1  0     0  0
 21 23  2  0     0  0
 22 24  2  0     0  0
 23 24  1  0     0  0
 26 27  1  0     0  0
 31 33  1  0     0  0
 32 34  1  0     0  0
M  END
> <standard_type>
pIC50

> <# Confs.>
25

> <canonical_smiles>
CN(CC1)CCN1C2=CC=C(C(NC3=NNC4=C3CN(C([C@H](C5=CC=CC=C5)OC)=O)C4)=O)C=C2

> <standard_relation>
=

> <Publication_ID>
nan

> <predicted_activity_value>
6.2839966563652006

> <actual_activity_value>
6.200659450546418

> <Compound>
20

> <standard_units>
nM

> hash
7939965660355082475

$$$$
20_
XXILIB    08252103493D 0   0.00000     0.00000

 35 39  0     1  0            999 V2000
    1.7144   -0.0000   -2.2911 O   0  0  0  0  0  2           0  0  0
   -1.8577   -0.0317   -5.2343 O   0  0  0  0  0  2           0  0  0
   -4.4196    1.1478   -5.2459 O   0  0  0  0  0  2           0  0  0
   -2.0475   -0.0071    0.6334 N   0  0  0  0  0  3           0  0  0
   -0.7770    0.0000    1.1066 N   0  0  0  0  0  3           0  0  0
    7.8333    0.0386   -0.4788 N   0  0  2  0  0  3           0  0  0
    1.3878   -0.0000   -0.0000 N   0  0  0  0  0  3           0  0  0
   -2.1944   -0.0206   -2.9547 N   0  0  1  0  0  3           0  0  0
   10.6531   -0.1693   -0.0888 N   0  0  2  0  0  3           0  0  0
    0.0000    0.0000    0.0000 C   0  0  0  0  0  4           0  0  0
   -2.0797   -0.0078   -0.7113 C   0  0  0  0  0  4           0  0  0
    6.4607    0.0294   -0.6269 C   0  0  0  0  0  4           0  0  0
   -0.7943   -0.0032   -1.1543 C   0  0  0  0  0  4           0  0  0
    3.6246    0.0010   -0.9384 C   0  0  0  0  0  4           0  0  0
   -4.5562   -1.2603   -5.2721 C   0  0  0  0  0  4           0  0  0
    5.8344    0.5652   -1.7671 C   0  0  0  0  0  4           0  0  0
    5.6115   -0.5167    0.3530 C   0  0  0  0  0  4           0  0  0
    4.4424    0.5535   -1.9253 C   0  0  0  0  0  4           0  0  0
    4.2172   -0.5338    0.2063 C   0  0  0  0  0  4           0  0  0
   -4.9788   -2.4215   -4.6066 C   0  0  0  0  0  4           0  0  0
   -4.5505   -1.2532   -6.6743 C   0  0  0  0  0  4           0  0  0
   -5.3783   -3.5486   -5.3267 C   0  0  0  0  0  4           0  0  0
   -4.9497   -2.3815   -7.3930 C   0  0  0  0  0  4           0  0  0
   -5.3633   -3.5287   -6.7196 C   0  0  0  0  0  4           0  0  0
    2.1565    0.0000   -1.1440 C   0  0  0  0  0  4           0  0  0
   -2.6286   -0.0316   -4.2693 C   0  0  0  0  0  4           0  0  0
   -4.1300   -0.0306   -4.5107 C   0  0  1  0  0  4           0  0  0
   -5.7139    1.6639   -4.9664 C   0  0  0  0  0  4           0  0  0
   -3.0974   -0.0199   -1.7568 C   0  0  0  0  0  4           0  0  0
   -0.7336   -0.0112   -2.6184 C   0  0  0  0  0  4           0  0  0
    8.6618   -0.6568   -1.4694 C   0  0  0  0  0  4           0  0  0
    8.4035    0.1978    0.8635 C   0  0  0  0  0  4           0  0  0
   10.0992   -0.1340   -1.4469 C   0  0  0  0  0  4           0  0  0
    9.8513    0.6867    0.7923 C   0  0  0  0  0  4           0  0  0
   12.0499    0.2639   -0.0932 C   0  0  0  0  0  4           0  0  0
  1 25  2  0     0  0
  2 26  2  0     0  0
  3 27  1  0     0  0
  3 28  1  0     0  0
  4  5  1  0     0  0
  4 11  1  0     0  0
  5 10  2  0     0  0
  6 12  1  0     0  0
  6 31  1  0     0  0
  6 32  1  0     0  0
  7 10  1  0     0  0
  7 25  1  0     0  0
  8 26  1  0     0  0
  8 29  1  0     0  0
  8 30  1  0     0  0
  9 33  1  0     0  0
  9 34  1  0     0  0
  9 35  1  0     0  0
 10 13  1  0     0  0
 11 13  2  0     0  0
 11 29  1  0     0  0
 12 16  2  0     0  0
 12 17  1  0     0  0
 13 30  1  0     0  0
 14 18  2  0     0  0
 14 19  1  0     0  0
 14 25  1  0     0  0
 15 20  2  0     0  0
 15 21  1  0     0  0
 15 27  1  0     0  0
 16 18  1  0     0  0
 17 19  2  0     0  0
 20 22  1  0     0  0
 21 23  2  0     0  0
 22 24  2  0     0  0
 23 24  1  0     0  0
 26 27  1  0     0  0
 31 33  1  0     0  0
 32 34  1  0     0  0
M  END
> <standard_type>
pIC50

> <# Confs.>
25

> <canonical_smiles>
CN(CC1)CCN1C2=CC=C(C(NC3=NNC4=C3CN(C([C@H](C5=CC=CC=C5)OC)=O)C4)=O)C=C2

> <standard_relation>
=

> <Publication_ID>
nan

> <predicted_activity_value>
6.2839966563652006

> <actual_activity_value>
6.200659450546418

> <Compound>
20

> <standard_units>
nM

> hash
7939965660355082475

$$$$
20_
XXILIB    08252103493D 0   0.00000     0.00000

 35 39  0     1  0            999 V2000
    1.7144   -0.0000   -2.2911 O   0  0  0  0  0  2           0  0  0
   -1.8577   -0.0317   -5.2343 O   0  0  0  0  0  2           0  0  0
   -4.5275    1.3299   -4.5744 O   0  0  0  0  0  2           0  0  0
   -2.0475   -0.0071    0.6334 N   0  0  0  0  0  3           0  0  0
   -0.7770   -0.0000    1.1066 N   0  0  0  0  0  3           0  0  0
    7.8333    0.0386   -0.4788 N   0  0  2  0  0  3           0  0  0
    1.3878   -0.0000   -0.0000 N   0  0  0  0  0  3           0  0  0
   -2.1944   -0.0206   -2.9547 N   0  0  1  0  0  3           0  0  0
    9.9716   -1.7280    0.1268 N   0  0  2  0  0  3           0  0  0
    0.0000    0.0000    0.0000 C   0  0  0  0  0  4           0  0  0
   -2.0797   -0.0078   -0.7113 C   0  0  0  0  0  4           0  0  0
    6.4607    0.0294   -0.6269 C   0  0  0  0  0  4           0  0  0
   -0.7943   -0.0032   -1.1543 C   0  0  0  0  0  4           0  0  0
    3.6246    0.0010   -0.9384 C   0  0  0  0  0  4           0  0  0
   -4.4727   -0.7535   -5.7889 C   0  0  0  0  0  4           0  0  0
    5.8344    0.5652   -1.7671 C   0  0  0  0  0  4           0  0  0
    5.6115   -0.5167    0.3530 C   0  0  0  0  0  4           0  0  0
    4.4424    0.5535   -1.9253 C   0  0  0  0  0  4           0  0  0
    4.2172   -0.5338    0.2063 C   0  0  0  0  0  4           0  0  0
   -4.7880   -2.1212   -5.7924 C   0  0  0  0  0  4           0  0  0
   -4.4966   -0.0546   -7.0043 C   0  0  0  0  0  4           0  0  0
   -5.1114   -2.7735   -6.9835 C   0  0  0  0  0  4           0  0  0
   -4.8197   -0.7086   -8.1946 C   0  0  0  0  0  4           0  0  0
   -5.1268   -2.0674   -8.1843 C   0  0  0  0  0  4           0  0  0
    2.1565    0.0000   -1.1440 C   0  0  0  0  0  4           0  0  0
   -2.6286   -0.0316   -4.2693 C   0  0  0  0  0  4           0  0  0
   -4.1300   -0.0306   -4.5107 C   0  0  1  0  0  4           0  0  0
   -5.8527    1.5363   -4.1042 C   0  0  0  0  0  4           0  0  0
   -3.0974   -0.0199   -1.7568 C   0  0  0  0  0  4           0  0  0
   -0.7336   -0.0112   -2.6184 C   0  0  0  0  0  4           0  0  0
    8.4709    0.1112    0.8369 C   0  0  0  0  0  4           0  0  0
    8.7310   -0.3963   -1.5503 C   0  0  0  0  0  4           0  0  0
    9.0509   -1.2663    1.1801 C   0  0  0  0  0  4           0  0  0
    9.3029   -1.7709   -1.1854 C   0  0  0  0  0  4           0  0  0
   10.5220   -3.0396    0.4648 C   0  0  0  0  0  4           0  0  0
  1 25  2  0     0  0
  2 26  2  0     0  0
  3 27  1  0     0  0
  3 28  1  0     0  0
  4  5  1  0     0  0
  4 11  1  0     0  0
  5 10  2  0     0  0
  6 12  1  0     0  0
  6 31  1  0     0  0
  6 32  1  0     0  0
  7 10  1  0     0  0
  7 25  1  0     0  0
  8 26  1  0     0  0
  8 29  1  0     0  0
  8 30  1  0     0  0
  9 33  1  0     0  0
  9 34  1  0     0  0
  9 35  1  0     0  0
 10 13  1  0     0  0
 11 13  2  0     0  0
 11 29  1  0     0  0
 12 16  2  0     0  0
 12 17  1  0     0  0
 13 30  1  0     0  0
 14 18  2  0     0  0
 14 19  1  0     0  0
 14 25  1  0     0  0
 15 20  2  0     0  0
 15 21  1  0     0  0
 15 27  1  0     0  0
 16 18  1  0     0  0
 17 19  2  0     0  0
 20 22  1  0     0  0
 21 23  2  0     0  0
 22 24  2  0     0  0
 23 24  1  0     0  0
 26 27  1  0     0  0
 31 33  1  0     0  0
 32 34  1  0     0  0
M  END
> <standard_type>
pIC50

> <# Confs.>
25

> <canonical_smiles>
CN(CC1)CCN1C2=CC=C(C(NC3=NNC4=C3CN(C([C@H](C5=CC=CC=C5)OC)=O)C4)=O)C=C2

> <standard_relation>
=

> <Publication_ID>
nan

> <predicted_activity_value>
6.2839966563652006

> <actual_activity_value>
6.200659450546418

> <Compound>
20

> <standard_units>
nM

> hash
7939965660355082475

$$$$
20_
XXILIB    08252103493D 0   0.00000     0.00000

 35 39  0     1  0            999 V2000
    1.7144    0.0000   -2.2911 O   0  0  0  0  0  2           0  0  0
   -1.8577   -0.0317   -5.2343 O   0  0  0  0  0  2           0  0  0
   -4.3409    0.6500   -5.7376 O   0  0  0  0  0  2           0  0  0
   -2.0475   -0.0071    0.6334 N   0  0  0  0  0  3           0  0  0
   -0.7770    0.0000    1.1066 N   0  0  0  0  0  3           0  0  0
    7.8299   -0.0799   -0.4542 N   0  0  2  0  0  3           0  0  0
    1.3878    0.0000    0.0000 N   0  0  0  0  0  3           0  0  0
   -2.1944   -0.0206   -2.9547 N   0  0  1  0  0  3           0  0  0
   10.1996    1.4051    0.0344 N   0  0  2  0  0  3           0  0  0
    0.0000    0.0000    0.0000 C   0  0  0  0  0  4           0  0  0
   -2.0797   -0.0078   -0.7113 C   0  0  0  0  0  4           0  0  0
    6.4589   -0.0503   -0.6135 C   0  0  0  0  0  4           0  0  0
   -0.7943   -0.0032   -1.1543 C   0  0  0  0  0  4           0  0  0
    3.6246    0.0010   -0.9384 C   0  0  0  0  0  4           0  0  0
   -4.6685   -1.4376   -4.5744 C   0  0  0  0  0  4           0  0  0
    5.8339   -0.5788   -1.7577 C   0  0  0  0  0  4           0  0  0
    5.6099    0.5090    0.3593 C   0  0  0  0  0  4           0  0  0
    4.4427   -0.5566   -1.9222 C   0  0  0  0  0  4           0  0  0
    4.2166    0.5374    0.2058 C   0  0  0  0  0  4           0  0  0
   -3.8628   -2.5099   -4.9879 C   0  0  0  0  0  4           0  0  0
   -5.9947   -1.6978   -4.2007 C   0  0  0  0  0  4           0  0  0
   -4.3745   -3.8079   -5.0331 C   0  0  0  0  0  4           0  0  0
   -6.5051   -2.9964   -4.2471 C   0  0  0  0  0  4           0  0  0
   -5.6954   -4.0510   -4.6631 C   0  0  0  0  0  4           0  0  0
    2.1565    0.0000   -1.1440 C   0  0  0  0  0  4           0  0  0
   -2.6286   -0.0316   -4.2693 C   0  0  0  0  0  4           0  0  0
   -4.1300   -0.0306   -4.5107 C   0  0  1  0  0  4           0  0  0
   -4.5041    2.0514   -5.5660 C   0  0  0  0  0  4           0  0  0
   -3.0974   -0.0199   -1.7568 C   0  0  0  0  0  4           0  0  0
   -0.7336   -0.0112   -2.6184 C   0  0  0  0  0  4           0  0  0
    8.4654   -0.1594    0.8615 C   0  0  0  0  0  4           0  0  0
    8.7546    0.1776   -1.5583 C   0  0  0  0  0  4           0  0  0
    9.2377    1.1401    1.1175 C   0  0  0  0  0  4           0  0  0
    9.5222    1.4728   -1.2713 C   0  0  0  0  0  4           0  0  0
   10.9365    2.6409    0.2945 C   0  0  0  0  0  4           0  0  0
  1 25  2  0     0  0
  2 26  2  0     0  0
  3 27  1  0     0  0
  3 28  1  0     0  0
  4  5  1  0     0  0
  4 11  1  0     0  0
  5 10  2  0     0  0
  6 12  1  0     0  0
  6 31  1  0     0  0
  6 32  1  0     0  0
  7 10  1  0     0  0
  7 25  1  0     0  0
  8 26  1  0     0  0
  8 29  1  0     0  0
  8 30  1  0     0  0
  9 33  1  0     0  0
  9 34  1  0     0  0
  9 35  1  0     0  0
 10 13  1  0     0  0
 11 13  2  0     0  0
 11 29  1  0     0  0
 12 16  2  0     0  0
 12 17  1  0     0  0
 13 30  1  0     0  0
 14 18  2  0     0  0
 14 19  1  0     0  0
 14 25  1  0     0  0
 15 20  2  0     0  0
 15 21  1  0     0  0
 15 27  1  0     0  0
 16 18  1  0     0  0
 17 19  2  0     0  0
 20 22  1  0     0  0
 21 23  2  0     0  0
 22 24  2  0     0  0
 23 24  1  0     0  0
 26 27  1  0     0  0
 31 33  1  0     0  0
 32 34  1  0     0  0
M  END
> <standard_type>
pIC50

> <# Confs.>
25

> <canonical_smiles>
CN(CC1)CCN1C2=CC=C(C(NC3=NNC4=C3CN(C([C@H](C5=CC=CC=C5)OC)=O)C4)=O)C=C2

> <standard_relation>
=

> <Publication_ID>
nan

> <predicted_activity_value>
6.2839966563652006

> <actual_activity_value>
6.200659450546418

> <Compound>
20

> <standard_units>
nM

> hash
7939965660355082475

$$$$
20_
XXILIB    08252103493D 0   0.00000     0.00000

 35 39  0     1  0            999 V2000
    1.7144    0.0000   -2.2911 O   0  0  0  0  0  2           0  0  0
   -1.8577   -0.0317   -5.2343 O   0  0  0  0  0  2           0  0  0
   -4.5275    1.3299   -4.5744 O   0  0  0  0  0  2           0  0  0
   -2.0475   -0.0071    0.6334 N   0  0  0  0  0  3           0  0  0
   -0.7770   -0.0000    1.1066 N   0  0  0  0  0  3           0  0  0
    7.8299   -0.0799   -0.4542 N   0  0  2  0  0  3           0  0  0
    1.3878    0.0000    0.0000 N   0  0  0  0  0  3           0  0  0
   -2.1944   -0.0206   -2.9547 N   0  0  1  0  0  3           0  0  0
    9.7864   -0.8725    1.4442 N   0  0  2  0  0  3           0  0  0
    0.0000    0.0000    0.0000 C   0  0  0  0  0  4           0  0  0
   -2.0797   -0.0078   -0.7113 C   0  0  0  0  0  4           0  0  0
    6.4589   -0.0503   -0.6135 C   0  0  0  0  0  4           0  0  0
   -0.7943   -0.0032   -1.1543 C   0  0  0  0  0  4           0  0  0
    3.6246    0.0010   -0.9384 C   0  0  0  0  0  4           0  0  0
   -4.4727   -0.7535   -5.7889 C   0  0  0  0  0  4           0  0  0
    5.8339   -0.5788   -1.7577 C   0  0  0  0  0  4           0  0  0
    5.6099    0.5090    0.3593 C   0  0  0  0  0  4           0  0  0
    4.4427   -0.5566   -1.9222 C   0  0  0  0  0  4           0  0  0
    4.2166    0.5374    0.2058 C   0  0  0  0  0  4           0  0  0
   -4.7880   -2.1212   -5.7924 C   0  0  0  0  0  4           0  0  0
   -4.4966   -0.0546   -7.0043 C   0  0  0  0  0  4           0  0  0
   -5.1114   -2.7735   -6.9835 C   0  0  0  0  0  4           0  0  0
   -4.8197   -0.7086   -8.1946 C   0  0  0  0  0  4           0  0  0
   -5.1268   -2.0674   -8.1843 C   0  0  0  0  0  4           0  0  0
    2.1565    0.0000   -1.1440 C   0  0  0  0  0  4           0  0  0
   -2.6286   -0.0316   -4.2693 C   0  0  0  0  0  4           0  0  0
   -4.1300   -0.0306   -4.5107 C   0  0  1  0  0  4           0  0  0
   -5.8527    1.5363   -4.1042 C   0  0  0  0  0  4           0  0  0
   -3.0974   -0.0199   -1.7568 C   0  0  0  0  0  4           0  0  0
   -0.7336   -0.0112   -2.6184 C   0  0  0  0  0  4           0  0  0
    8.5444    0.9456    0.3079 C   0  0  0  0  0  4           0  0  0
    8.6114   -1.2946   -0.6927 C   0  0  0  0  0  4           0  0  0
    8.9841    0.3459    1.6492 C   0  0  0  0  0  4           0  0  0
    9.0446   -1.8742    0.6586 C   0  0  0  0  0  4           0  0  0
   10.2039   -1.4342    2.7278 C   0  0  0  0  0  4           0  0  0
  1 25  2  0     0  0
  2 26  2  0     0  0
  3 27  1  0     0  0
  3 28  1  0     0  0
  4  5  1  0     0  0
  4 11  1  0     0  0
  5 10  2  0     0  0
  6 12  1  0     0  0
  6 31  1  0     0  0
  6 32  1  0     0  0
  7 10  1  0     0  0
  7 25  1  0     0  0
  8 26  1  0     0  0
  8 29  1  0     0  0
  8 30  1  0     0  0
  9 33  1  0     0  0
  9 34  1  0     0  0
  9 35  1  0     0  0
 10 13  1  0     0  0
 11 13  2  0     0  0
 11 29  1  0     0  0
 12 16  2  0     0  0
 12 17  1  0     0  0
 13 30  1  0     0  0
 14 18  2  0     0  0
 14 19  1  0     0  0
 14 25  1  0     0  0
 15 20  2  0     0  0
 15 21  1  0     0  0
 15 27  1  0     0  0
 16 18  1  0     0  0
 17 19  2  0     0  0
 20 22  1  0     0  0
 21 23  2  0     0  0
 22 24  2  0     0  0
 23 24  1  0     0  0
 26 27  1  0     0  0
 31 33  1  0     0  0
 32 34  1  0     0  0
M  END
> <standard_type>
pIC50

> <# Confs.>
25

> <canonical_smiles>
CN(CC1)CCN1C2=CC=C(C(NC3=NNC4=C3CN(C([C@H](C5=CC=CC=C5)OC)=O)C4)=O)C=C2

> <standard_relation>
=

> <Publication_ID>
nan

> <predicted_activity_value>
6.2839966563652006

> <actual_activity_value>
6.200659450546418

> <Compound>
20

> <standard_units>
nM

> hash
7939965660355082475

$$$$
20_
XXILIB    08252103493D 0   0.00000     0.00000

 35 39  0     1  0            999 V2000
    1.7144   -0.0000   -2.2911 O   0  0  0  0  0  2           0  0  0
   -1.8577   -0.0317   -5.2343 O   0  0  0  0  0  2           0  0  0
   -4.3409    0.6500   -5.7376 O   0  0  0  0  0  2           0  0  0
   -2.0475   -0.0071    0.6334 N   0  0  0  0  0  3           0  0  0
   -0.7770    0.0000    1.1066 N   0  0  0  0  0  3           0  0  0
    7.8333    0.0386   -0.4788 N   0  0  2  0  0  3           0  0  0
    1.3878   -0.0000   -0.0000 N   0  0  0  0  0  3           0  0  0
   -2.1944   -0.0206   -2.9547 N   0  0  1  0  0  3           0  0  0
   10.0459    0.7867    1.1350 N   0  0  2  0  0  3           0  0  0
    0.0000    0.0000    0.0000 C   0  0  0  0  0  4           0  0  0
   -2.0797   -0.0078   -0.7113 C   0  0  0  0  0  4           0  0  0
    6.4607    0.0294   -0.6269 C   0  0  0  0  0  4           0  0  0
   -0.7943   -0.0032   -1.1543 C   0  0  0  0  0  4           0  0  0
    3.6246    0.0010   -0.9384 C   0  0  0  0  0  4           0  0  0
   -4.6685   -1.4376   -4.5744 C   0  0  0  0  0  4           0  0  0
    5.8344    0.5652   -1.7671 C   0  0  0  0  0  4           0  0  0
    5.6115   -0.5167    0.3530 C   0  0  0  0  0  4           0  0  0
    4.4424    0.5535   -1.9253 C   0  0  0  0  0  4           0  0  0
    4.2172   -0.5338    0.2063 C   0  0  0  0  0  4           0  0  0
   -3.8628   -2.5099   -4.9879 C   0  0  0  0  0  4           0  0  0
   -5.9947   -1.6978   -4.2007 C   0  0  0  0  0  4           0  0  0
   -4.3745   -3.8079   -5.0331 C   0  0  0  0  0  4           0  0  0
   -6.5051   -2.9964   -4.2471 C   0  0  0  0  0  4           0  0  0
   -5.6954   -4.0510   -4.6631 C   0  0  0  0  0  4           0  0  0
    2.1565    0.0000   -1.1440 C   0  0  0  0  0  4           0  0  0
   -2.6286   -0.0316   -4.2693 C   0  0  0  0  0  4           0  0  0
   -4.1300   -0.0306   -4.5107 C   0  0  1  0  0  4           0  0  0
   -4.5041    2.0514   -5.5660 C   0  0  0  0  0  4           0  0  0
   -3.0974   -0.0199   -1.7568 C   0  0  0  0  0  4           0  0  0
   -0.7336   -0.0112   -2.6184 C   0  0  0  0  0  4           0  0  0
    8.5478   -0.9907    0.2769 C   0  0  0  0  0  4           0  0  0
    8.6587    1.1785   -0.8784 C   0  0  0  0  0  4           0  0  0
    9.1832   -0.3451    1.5139 C   0  0  0  0  0  4           0  0  0
    9.2916    1.7963    0.3734 C   0  0  0  0  0  4           0  0  0
   10.6534    1.3875    2.3215 C   0  0  0  0  0  4           0  0  0
  1 25  2  0     0  0
  2 26  2  0     0  0
  3 27  1  0     0  0
  3 28  1  0     0  0
  4  5  1  0     0  0
  4 11  1  0     0  0
  5 10  2  0     0  0
  6 12  1  0     0  0
  6 31  1  0     0  0
  6 32  1  0     0  0
  7 10  1  0     0  0
  7 25  1  0     0  0
  8 26  1  0     0  0
  8 29  1  0     0  0
  8 30  1  0     0  0
  9 33  1  0     0  0
  9 34  1  0     0  0
  9 35  1  0     0  0
 10 13  1  0     0  0
 11 13  2  0     0  0
 11 29  1  0     0  0
 12 16  2  0     0  0
 12 17  1  0     0  0
 13 30  1  0     0  0
 14 18  2  0     0  0
 14 19  1  0     0  0
 14 25  1  0     0  0
 15 20  2  0     0  0
 15 21  1  0     0  0
 15 27  1  0     0  0
 16 18  1  0     0  0
 17 19  2  0     0  0
 20 22  1  0     0  0
 21 23  2  0     0  0
 22 24  2  0     0  0
 23 24  1  0     0  0
 26 27  1  0     0  0
 31 33  1  0     0  0
 32 34  1  0     0  0
M  END
> <standard_type>
pIC50

> <# Confs.>
25

> <canonical_smiles>
CN(CC1)CCN1C2=CC=C(C(NC3=NNC4=C3CN(C([C@H](C5=CC=CC=C5)OC)=O)C4)=O)C=C2

> <standard_relation>
=

> <Publication_ID>
nan

> <predicted_activity_value>
6.2839966563652006

> <actual_activity_value>
6.200659450546418

> <Compound>
20

> <standard_units>
nM

> hash
7939965660355082475

$$$$
20_
XXILIB    08252103493D 0   0.00000     0.00000

 35 39  0     1  0            999 V2000
    1.7144   -0.0000   -2.2911 O   0  0  0  0  0  2           0  0  0
   -1.8577   -0.0317   -5.2343 O   0  0  0  0  0  2           0  0  0
   -4.3409    0.6500   -5.7376 O   0  0  0  0  0  2           0  0  0
   -2.0475   -0.0071    0.6334 N   0  0  0  0  0  3           0  0  0
   -0.7770    0.0000    1.1066 N   0  0  0  0  0  3           0  0  0
    7.8333    0.0386   -0.4788 N   0  0  2  0  0  3           0  0  0
    1.3878   -0.0000   -0.0000 N   0  0  0  0  0  3           0  0  0
   -2.1944   -0.0206   -2.9547 N   0  0  1  0  0  3           0  0  0
    9.9716   -1.7280    0.1268 N   0  0  2  0  0  3           0  0  0
    0.0000    0.0000    0.0000 C   0  0  0  0  0  4           0  0  0
   -2.0797   -0.0078   -0.7113 C   0  0  0  0  0  4           0  0  0
    6.4607    0.0294   -0.6269 C   0  0  0  0  0  4           0  0  0
   -0.7943   -0.0032   -1.1543 C   0  0  0  0  0  4           0  0  0
    3.6246    0.0010   -0.9384 C   0  0  0  0  0  4           0  0  0
   -4.6685   -1.4376   -4.5744 C   0  0  0  0  0  4           0  0  0
    5.8344    0.5652   -1.7671 C   0  0  0  0  0  4           0  0  0
    5.6115   -0.5167    0.3530 C   0  0  0  0  0  4           0  0  0
    4.4424    0.5535   -1.9253 C   0  0  0  0  0  4           0  0  0
    4.2172   -0.5338    0.2063 C   0  0  0  0  0  4           0  0  0
   -3.8628   -2.5099   -4.9879 C   0  0  0  0  0  4           0  0  0
   -5.9947   -1.6978   -4.2007 C   0  0  0  0  0  4           0  0  0
   -4.3745   -3.8079   -5.0331 C   0  0  0  0  0  4           0  0  0
   -6.5051   -2.9964   -4.2471 C   0  0  0  0  0  4           0  0  0
   -5.6954   -4.0510   -4.6631 C   0  0  0  0  0  4           0  0  0
    2.1565    0.0000   -1.1440 C   0  0  0  0  0  4           0  0  0
   -2.6286   -0.0316   -4.2693 C   0  0  0  0  0  4           0  0  0
   -4.1300   -0.0306   -4.5107 C   0  0  1  0  0  4           0  0  0
   -4.5041    2.0514   -5.5660 C   0  0  0  0  0  4           0  0  0
   -3.0974   -0.0199   -1.7568 C   0  0  0  0  0  4           0  0  0
   -0.7336   -0.0112   -2.6184 C   0  0  0  0  0  4           0  0  0
    8.4709    0.1112    0.8369 C   0  0  0  0  0  4           0  0  0
    8.7310   -0.3963   -1.5503 C   0  0  0  0  0  4           0  0  0
    9.0509   -1.2663    1.1801 C   0  0  0  0  0  4           0  0  0
    9.3029   -1.7709   -1.1854 C   0  0  0  0  0  4           0  0  0
   10.5220   -3.0396    0.4648 C   0  0  0  0  0  4           0  0  0
  1 25  2  0     0  0
  2 26  2  0     0  0
  3 27  1  0     0  0
  3 28  1  0     0  0
  4  5  1  0     0  0
  4 11  1  0     0  0
  5 10  2  0     0  0
  6 12  1  0     0  0
  6 31  1  0     0  0
  6 32  1  0     0  0
  7 10  1  0     0  0
  7 25  1  0     0  0
  8 26  1  0     0  0
  8 29  1  0     0  0
  8 30  1  0     0  0
  9 33  1  0     0  0
  9 34  1  0     0  0
  9 35  1  0     0  0
 10 13  1  0     0  0
 11 13  2  0     0  0
 11 29  1  0     0  0
 12 16  2  0     0  0
 12 17  1  0     0  0
 13 30  1  0     0  0
 14 18  2  0     0  0
 14 19  1  0     0  0
 14 25  1  0     0  0
 15 20  2  0     0  0
 15 21  1  0     0  0
 15 27  1  0     0  0
 16 18  1  0     0  0
 17 19  2  0     0  0
 20 22  1  0     0  0
 21 23  2  0     0  0
 22 24  2  0     0  0
 23 24  1  0     0  0
 26 27  1  0     0  0
 31 33  1  0     0  0
 32 34  1  0     0  0
M  END
> <standard_type>
pIC50

> <# Confs.>
25

> <canonical_smiles>
CN(CC1)CCN1C2=CC=C(C(NC3=NNC4=C3CN(C([C@H](C5=CC=CC=C5)OC)=O)C4)=O)C=C2

> <standard_relation>
=

> <Publication_ID>
nan

> <predicted_activity_value>
6.2839966563652006

> <actual_activity_value>
6.200659450546418

> <Compound>
20

> <standard_units>
nM

> hash
7939965660355082475

$$$$
20_
XXILIB    08252103493D 0   0.00000     0.00000

 35 39  0     1  0            999 V2000
    1.7144    0.0000   -2.2911 O   0  0  0  0  0  2           0  0  0
   -1.8577   -0.0317   -5.2343 O   0  0  0  0  0  2           0  0  0
   -4.3409    0.6500   -5.7376 O   0  0  0  0  0  2           0  0  0
   -2.0475   -0.0071    0.6334 N   0  0  0  0  0  3           0  0  0
   -0.7770    0.0000    1.1066 N   0  0  0  0  0  3           0  0  0
    7.8299   -0.0799   -0.4542 N   0  0  2  0  0  3           0  0  0
    1.3878    0.0000    0.0000 N   0  0  0  0  0  3           0  0  0
   -2.1944   -0.0206   -2.9547 N   0  0  1  0  0  3           0  0  0
    9.7864   -0.8725    1.4442 N   0  0  2  0  0  3           0  0  0
    0.0000    0.0000    0.0000 C   0  0  0  0  0  4           0  0  0
   -2.0797   -0.0078   -0.7113 C   0  0  0  0  0  4           0  0  0
    6.4589   -0.0503   -0.6135 C   0  0  0  0  0  4           0  0  0
   -0.7943   -0.0032   -1.1543 C   0  0  0  0  0  4           0  0  0
    3.6246    0.0010   -0.9384 C   0  0  0  0  0  4           0  0  0
   -4.6685   -1.4376   -4.5744 C   0  0  0  0  0  4           0  0  0
    5.8339   -0.5788   -1.7577 C   0  0  0  0  0  4           0  0  0
    5.6099    0.5090    0.3593 C   0  0  0  0  0  4           0  0  0
    4.4427   -0.5566   -1.9222 C   0  0  0  0  0  4           0  0  0
    4.2166    0.5374    0.2058 C   0  0  0  0  0  4           0  0  0
   -3.8628   -2.5099   -4.9879 C   0  0  0  0  0  4           0  0  0
   -5.9947   -1.6978   -4.2007 C   0  0  0  0  0  4           0  0  0
   -4.3745   -3.8079   -5.0331 C   0  0  0  0  0  4           0  0  0
   -6.5051   -2.9964   -4.2471 C   0  0  0  0  0  4           0  0  0
   -5.6954   -4.0510   -4.6631 C   0  0  0  0  0  4           0  0  0
    2.1565    0.0000   -1.1440 C   0  0  0  0  0  4           0  0  0
   -2.6286   -0.0316   -4.2693 C   0  0  0  0  0  4           0  0  0
   -4.1300   -0.0306   -4.5107 C   0  0  1  0  0  4           0  0  0
   -4.5041    2.0514   -5.5660 C   0  0  0  0  0  4           0  0  0
   -3.0974   -0.0199   -1.7568 C   0  0  0  0  0  4           0  0  0
   -0.7336   -0.0112   -2.6184 C   0  0  0  0  0  4           0  0  0
    8.5444    0.9456    0.3079 C   0  0  0  0  0  4           0  0  0
    8.6114   -1.2946   -0.6927 C   0  0  0  0  0  4           0  0  0
    8.9841    0.3459    1.6492 C   0  0  0  0  0  4           0  0  0
    9.0446   -1.8742    0.6586 C   0  0  0  0  0  4           0  0  0
   10.2039   -1.4342    2.7278 C   0  0  0  0  0  4           0  0  0
  1 25  2  0     0  0
  2 26  2  0     0  0
  3 27  1  0     0  0
  3 28  1  0     0  0
  4  5  1  0     0  0
  4 11  1  0     0  0
  5 10  2  0     0  0
  6 12  1  0     0  0
  6 31  1  0     0  0
  6 32  1  0     0  0
  7 10  1  0     0  0
  7 25  1  0     0  0
  8 26  1  0     0  0
  8 29  1  0     0  0
  8 30  1  0     0  0
  9 33  1  0     0  0
  9 34  1  0     0  0
  9 35  1  0     0  0
 10 13  1  0     0  0
 11 13  2  0     0  0
 11 29  1  0     0  0
 12 16  2  0     0  0
 12 17  1  0     0  0
 13 30  1  0     0  0
 14 18  2  0     0  0
 14 19  1  0     0  0
 14 25  1  0     0  0
 15 20  2  0     0  0
 15 21  1  0     0  0
 15 27  1  0     0  0
 16 18  1  0     0  0
 17 19  2  0     0  0
 20 22  1  0     0  0
 21 23  2  0     0  0
 22 24  2  0     0  0
 23 24  1  0     0  0
 26 27  1  0     0  0
 31 33  1  0     0  0
 32 34  1  0     0  0
M  END
> <standard_type>
pIC50

> <# Confs.>
25

> <canonical_smiles>
CN(CC1)CCN1C2=CC=C(C(NC3=NNC4=C3CN(C([C@H](C5=CC=CC=C5)OC)=O)C4)=O)C=C2

> <standard_relation>
=

> <Publication_ID>
nan

> <predicted_activity_value>
6.2839966563652006

> <actual_activity_value>
6.200659450546418

> <Compound>
20

> <standard_units>
nM

> hash
7939965660355082475

$$$$
20_
XXILIB    08252103493D 0   0.00000     0.00000

 35 39  0     1  0            999 V2000
    1.7144    0.0000   -2.2911 O   0  0  0  0  0  2           0  0  0
   -1.8577   -0.0317   -5.2343 O   0  0  0  0  0  2           0  0  0
   -4.3409    0.6500   -5.7376 O   0  0  0  0  0  2           0  0  0
   -2.0475   -0.0071    0.6334 N   0  0  0  0  0  3           0  0  0
   -0.7770    0.0000    1.1066 N   0  0  0  0  0  3           0  0  0
    7.8299   -0.0799   -0.4542 N   0  0  2  0  0  3           0  0  0
    1.3878    0.0000    0.0000 N   0  0  0  0  0  3           0  0  0
   -2.1944   -0.0206   -2.9547 N   0  0  1  0  0  3           0  0  0
   10.6259   -0.2054    0.1060 N   0  0  2  0  0  3           0  0  0
    0.0000    0.0000    0.0000 C   0  0  0  0  0  4           0  0  0
   -2.0797   -0.0078   -0.7113 C   0  0  0  0  0  4           0  0  0
    6.4589   -0.0503   -0.6135 C   0  0  0  0  0  4           0  0  0
   -0.7943   -0.0032   -1.1543 C   0  0  0  0  0  4           0  0  0
    3.6246    0.0010   -0.9384 C   0  0  0  0  0  4           0  0  0
   -4.6685   -1.4376   -4.5744 C   0  0  0  0  0  4           0  0  0
    5.8339   -0.5788   -1.7577 C   0  0  0  0  0  4           0  0  0
    5.6099    0.5090    0.3593 C   0  0  0  0  0  4           0  0  0
    4.4427   -0.5566   -1.9222 C   0  0  0  0  0  4           0  0  0
    4.2166    0.5374    0.2058 C   0  0  0  0  0  4           0  0  0
   -3.8628   -2.5099   -4.9879 C   0  0  0  0  0  4           0  0  0
   -5.9947   -1.6978   -4.2007 C   0  0  0  0  0  4           0  0  0
   -4.3745   -3.8079   -5.0331 C   0  0  0  0  0  4           0  0  0
   -6.5051   -2.9964   -4.2471 C   0  0  0  0  0  4           0  0  0
   -5.6954   -4.0510   -4.6631 C   0  0  0  0  0  4           0  0  0
    2.1565    0.0000   -1.1440 C   0  0  0  0  0  4           0  0  0
   -2.6286   -0.0316   -4.2693 C   0  0  0  0  0  4           0  0  0
   -4.1300   -0.0306   -4.5107 C   0  0  1  0  0  4           0  0  0
   -5.5839    1.3378   -5.7762 C   0  0  0  0  0  4           0  0  0
   -3.0974   -0.0199   -1.7568 C   0  0  0  0  0  4           0  0  0
   -0.7336   -0.0112   -2.6184 C   0  0  0  0  0  4           0  0  0
    8.5181   -1.3751   -0.4397 C   0  0  0  0  0  4           0  0  0
    8.4888    1.0254    0.2506 C   0  0  0  0  0  4           0  0  0
   10.0041   -1.2107   -0.7630 C   0  0  0  0  0  4           0  0  0
    9.9761    1.0935   -0.1008 C   0  0  0  0  0  4           0  0  0
   12.0601   -0.1106   -0.1639 C   0  0  0  0  0  4           0  0  0
  1 25  2  0     0  0
  2 26  2  0     0  0
  3 27  1  0     0  0
  3 28  1  0     0  0
  4  5  1  0     0  0
  4 11  1  0     0  0
  5 10  2  0     0  0
  6 12  1  0     0  0
  6 31  1  0     0  0
  6 32  1  0     0  0
  7 10  1  0     0  0
  7 25  1  0     0  0
  8 26  1  0     0  0
  8 29  1  0     0  0
  8 30  1  0     0  0
  9 33  1  0     0  0
  9 34  1  0     0  0
  9 35  1  0     0  0
 10 13  1  0     0  0
 11 13  2  0     0  0
 11 29  1  0     0  0
 12 16  2  0     0  0
 12 17  1  0     0  0
 13 30  1  0     0  0
 14 18  2  0     0  0
 14 19  1  0     0  0
 14 25  1  0     0  0
 15 20  2  0     0  0
 15 21  1  0     0  0
 15 27  1  0     0  0
 16 18  1  0     0  0
 17 19  2  0     0  0
 20 22  1  0     0  0
 21 23  2  0     0  0
 22 24  2  0     0  0
 23 24  1  0     0  0
 26 27  1  0     0  0
 31 33  1  0     0  0
 32 34  1  0     0  0
M  END
> <standard_type>
pIC50

> <# Confs.>
25

> <canonical_smiles>
CN(CC1)CCN1C2=CC=C(C(NC3=NNC4=C3CN(C([C@H](C5=CC=CC=C5)OC)=O)C4)=O)C=C2

> <standard_relation>
=

> <Publication_ID>
nan

> <predicted_activity_value>
6.2839966563652006

> <actual_activity_value>
6.200659450546418

> <Compound>
20

> <standard_units>
nM

> hash
7939965660355082475

$$$$
20_
XXILIB    08252103493D 0   0.00000     0.00000

 35 39  0     1  0            999 V2000
    1.7144   -0.0000   -2.2911 O   0  0  0  0  0  2           0  0  0
   -1.8577   -0.0317   -5.2343 O   0  0  0  0  0  2           0  0  0
   -4.3409    0.6500   -5.7376 O   0  0  0  0  0  2           0  0  0
   -2.0475   -0.0071    0.6334 N   0  0  0  0  0  3           0  0  0
   -0.7770    0.0000    1.1066 N   0  0  0  0  0  3           0  0  0
    7.8333    0.0386   -0.4788 N   0  0  2  0  0  3           0  0  0
    1.3878   -0.0000   -0.0000 N   0  0  0  0  0  3           0  0  0
   -2.1944   -0.0206   -2.9547 N   0  0  1  0  0  3           0  0  0
   10.6531   -0.1693   -0.0888 N   0  0  2  0  0  3           0  0  0
    0.0000    0.0000    0.0000 C   0  0  0  0  0  4           0  0  0
   -2.0797   -0.0078   -0.7113 C   0  0  0  0  0  4           0  0  0
    6.4607    0.0294   -0.6269 C   0  0  0  0  0  4           0  0  0
   -0.7943   -0.0032   -1.1543 C   0  0  0  0  0  4           0  0  0
    3.6246    0.0010   -0.9384 C   0  0  0  0  0  4           0  0  0
   -4.6685   -1.4376   -4.5744 C   0  0  0  0  0  4           0  0  0
    5.8344    0.5652   -1.7671 C   0  0  0  0  0  4           0  0  0
    5.6115   -0.5167    0.3530 C   0  0  0  0  0  4           0  0  0
    4.4424    0.5535   -1.9253 C   0  0  0  0  0  4           0  0  0
    4.2172   -0.5338    0.2063 C   0  0  0  0  0  4           0  0  0
   -3.8628   -2.5099   -4.9879 C   0  0  0  0  0  4           0  0  0
   -5.9947   -1.6978   -4.2007 C   0  0  0  0  0  4           0  0  0
   -4.3745   -3.8079   -5.0331 C   0  0  0  0  0  4           0  0  0
   -6.5051   -2.9964   -4.2471 C   0  0  0  0  0  4           0  0  0
   -5.6954   -4.0510   -4.6631 C   0  0  0  0  0  4           0  0  0
    2.1565    0.0000   -1.1440 C   0  0  0  0  0  4           0  0  0
   -2.6286   -0.0316   -4.2693 C   0  0  0  0  0  4           0  0  0
   -4.1300   -0.0306   -4.5107 C   0  0  1  0  0  4           0  0  0
   -5.5839    1.3378   -5.7762 C   0  0  0  0  0  4           0  0  0
   -3.0974   -0.0199   -1.7568 C   0  0  0  0  0  4           0  0  0
   -0.7336   -0.0112   -2.6184 C   0  0  0  0  0  4           0  0  0
    8.6618   -0.6568   -1.4694 C   0  0  0  0  0  4           0  0  0
    8.4035    0.1978    0.8635 C   0  0  0  0  0  4           0  0  0
   10.0992   -0.1340   -1.4469 C   0  0  0  0  0  4           0  0  0
    9.8513    0.6867    0.7923 C   0  0  0  0  0  4           0  0  0
   12.0499    0.2639   -0.0932 C   0  0  0  0  0  4           0  0  0
  1 25  2  0     0  0
  2 26  2  0     0  0
  3 27  1  0     0  0
  3 28  1  0     0  0
  4  5  1  0     0  0
  4 11  1  0     0  0
  5 10  2  0     0  0
  6 12  1  0     0  0
  6 31  1  0     0  0
  6 32  1  0     0  0
  7 10  1  0     0  0
  7 25  1  0     0  0
  8 26  1  0     0  0
  8 29  1  0     0  0
  8 30  1  0     0  0
  9 33  1  0     0  0
  9 34  1  0     0  0
  9 35  1  0     0  0
 10 13  1  0     0  0
 11 13  2  0     0  0
 11 29  1  0     0  0
 12 16  2  0     0  0
 12 17  1  0     0  0
 13 30  1  0     0  0
 14 18  2  0     0  0
 14 19  1  0     0  0
 14 25  1  0     0  0
 15 20  2  0     0  0
 15 21  1  0     0  0
 15 27  1  0     0  0
 16 18  1  0     0  0
 17 19  2  0     0  0
 20 22  1  0     0  0
 21 23  2  0     0  0
 22 24  2  0     0  0
 23 24  1  0     0  0
 26 27  1  0     0  0
 31 33  1  0     0  0
 32 34  1  0     0  0
M  END
> <standard_type>
pIC50

> <# Confs.>
25

> <canonical_smiles>
CN(CC1)CCN1C2=CC=C(C(NC3=NNC4=C3CN(C([C@H](C5=CC=CC=C5)OC)=O)C4)=O)C=C2

> <standard_relation>
=

> <Publication_ID>
nan

> <predicted_activity_value>
6.2839966563652006

> <actual_activity_value>
6.200659450546418

> <Compound>
20

> <standard_units>
nM

> hash
7939965660355082475

$$$$
20_
XXILIB    08252103493D 0   0.00000     0.00000

 35 39  0     1  0            999 V2000
    1.7144    0.0000   -2.2911 O   0  0  0  0  0  2           0  0  0
   -1.8577   -0.0317   -5.2343 O   0  0  0  0  0  2           0  0  0
   -4.4196    1.1478   -5.2459 O   0  0  0  0  0  2           0  0  0
   -2.0475   -0.0071    0.6334 N   0  0  0  0  0  3           0  0  0
   -0.7770    0.0000    1.1066 N   0  0  0  0  0  3           0  0  0
    7.8010    0.0875   -0.2485 N   0  0  2  0  0  3           0  0  0
    1.3878   -0.0000    0.0000 N   0  0  0  0  0  3           0  0  0
   -2.1944   -0.0206   -2.9547 N   0  0  1  0  0  3           0  0  0
   10.6224   -0.0816    0.1492 N   0  0  2  0  0  3           0  0  0
    0.0000    0.0000    0.0000 C   0  0  0  0  0  4           0  0  0
   -2.0797   -0.0078   -0.7113 C   0  0  0  0  0  4           0  0  0
    6.4390    0.0560   -0.4720 C   0  0  0  0  0  4           0  0  0
   -0.7943   -0.0032   -1.1543 C   0  0  0  0  0  4           0  0  0
    3.6246    0.0010   -0.9384 C   0  0  0  0  0  4           0  0  0
   -4.5562   -1.2603   -5.2721 C   0  0  0  0  0  4           0  0  0
    5.5229    0.5835    0.4564 C   0  0  0  0  0  4           0  0  0
    5.8907   -0.5042   -1.6405 C   0  0  0  0  0  4           0  0  0
    4.1401    0.5594    0.2322 C   0  0  0  0  0  4           0  0  0
    4.5089   -0.5345   -1.8758 C   0  0  0  0  0  4           0  0  0
   -4.9788   -2.4215   -4.6066 C   0  0  0  0  0  4           0  0  0
   -4.5505   -1.2532   -6.6743 C   0  0  0  0  0  4           0  0  0
   -5.3783   -3.5486   -5.3267 C   0  0  0  0  0  4           0  0  0
   -4.9497   -2.3815   -7.3930 C   0  0  0  0  0  4           0  0  0
   -5.3633   -3.5287   -6.7196 C   0  0  0  0  0  4           0  0  0
    2.1565    0.0000   -1.1440 C   0  0  0  0  0  4           0  0  0
   -2.6286   -0.0316   -4.2693 C   0  0  0  0  0  4           0  0  0
   -4.1300   -0.0306   -4.5107 C   0  0  1  0  0  4           0  0  0
   -4.6901    2.2637   -4.4084 C   0  0  0  0  0  4           0  0  0
   -3.0974   -0.0199   -1.7568 C   0  0  0  0  0  4           0  0  0
   -0.7336   -0.0112   -2.6184 C   0  0  0  0  0  4           0  0  0
    8.7101    0.1688   -1.3966 C   0  0  0  0  0  4           0  0  0
    8.3359   -0.5203    0.9751 C   0  0  0  0  0  4           0  0  0
   10.0831    0.6939   -0.9734 C   0  0  0  0  0  4           0  0  0
    9.7238    0.0329    1.3032 C   0  0  0  0  0  4           0  0  0
   11.9649    0.3835    0.4959 C   0  0  0  0  0  4           0  0  0
  1 25  2  0     0  0
  2 26  2  0     0  0
  3 27  1  0     0  0
  3 28  1  0     0  0
  4  5  1  0     0  0
  4 11  1  0     0  0
  5 10  2  0     0  0
  6 12  1  0     0  0
  6 31  1  0     0  0
  6 32  1  0     0  0
  7 10  1  0     0  0
  7 25  1  0     0  0
  8 26  1  0     0  0
  8 29  1  0     0  0
  8 30  1  0     0  0
  9 33  1  0     0  0
  9 34  1  0     0  0
  9 35  1  0     0  0
 10 13  1  0     0  0
 11 13  2  0     0  0
 11 29  1  0     0  0
 12 16  2  0     0  0
 12 17  1  0     0  0
 13 30  1  0     0  0
 14 18  2  0     0  0
 14 19  1  0     0  0
 14 25  1  0     0  0
 15 20  2  0     0  0
 15 21  1  0     0  0
 15 27  1  0     0  0
 16 18  1  0     0  0
 17 19  2  0     0  0
 20 22  1  0     0  0
 21 23  2  0     0  0
 22 24  2  0     0  0
 23 24  1  0     0  0
 26 27  1  0     0  0
 31 33  1  0     0  0
 32 34  1  0     0  0
M  END
> <standard_type>
pIC50

> <# Confs.>
25

> <canonical_smiles>
CN(CC1)CCN1C2=CC=C(C(NC3=NNC4=C3CN(C([C@H](C5=CC=CC=C5)OC)=O)C4)=O)C=C2

> <standard_relation>
=

> <Publication_ID>
nan

> <predicted_activity_value>
6.2839966563652006

> <actual_activity_value>
6.200659450546418

> <Compound>
20

> <standard_units>
nM

> hash
7939965660355082475

$$$$
20_
XXILIB    08252103493D 0   0.00000     0.00000

 35 39  0     1  0            999 V2000
    1.7144    0.0000   -2.2911 O   0  0  0  0  0  2           0  0  0
   -1.8577   -0.0317   -5.2343 O   0  0  0  0  0  2           0  0  0
   -4.4196    1.1478   -5.2459 O   0  0  0  0  0  2           0  0  0
   -2.0475   -0.0071    0.6334 N   0  0  0  0  0  3           0  0  0
   -0.7770    0.0000    1.1066 N   0  0  0  0  0  3           0  0  0
    7.8299   -0.0799   -0.4542 N   0  0  2  0  0  3           0  0  0
    1.3878    0.0000    0.0000 N   0  0  0  0  0  3           0  0  0
   -2.1944   -0.0206   -2.9547 N   0  0  1  0  0  3           0  0  0
   10.0298   -1.0822    1.0342 N   0  0  2  0  0  3           0  0  0
    0.0000    0.0000    0.0000 C   0  0  0  0  0  4           0  0  0
   -2.0797   -0.0078   -0.7113 C   0  0  0  0  0  4           0  0  0
    6.4589   -0.0503   -0.6135 C   0  0  0  0  0  4           0  0  0
   -0.7943   -0.0032   -1.1543 C   0  0  0  0  0  4           0  0  0
    3.6246    0.0010   -0.9384 C   0  0  0  0  0  4           0  0  0
   -4.5562   -1.2603   -5.2721 C   0  0  0  0  0  4           0  0  0
    5.8339   -0.5788   -1.7577 C   0  0  0  0  0  4           0  0  0
    5.6099    0.5090    0.3593 C   0  0  0  0  0  4           0  0  0
    4.4427   -0.5566   -1.9222 C   0  0  0  0  0  4           0  0  0
    4.2166    0.5374    0.2058 C   0  0  0  0  0  4           0  0  0
   -4.9788   -2.4215   -4.6066 C   0  0  0  0  0  4           0  0  0
   -4.5505   -1.2532   -6.6743 C   0  0  0  0  0  4           0  0  0
   -5.3783   -3.5486   -5.3267 C   0  0  0  0  0  4           0  0  0
   -4.9497   -2.3815   -7.3930 C   0  0  0  0  0  4           0  0  0
   -5.3633   -3.5287   -6.7196 C   0  0  0  0  0  4           0  0  0
    2.1565    0.0000   -1.1440 C   0  0  0  0  0  4           0  0  0
   -2.6286   -0.0316   -4.2693 C   0  0  0  0  0  4           0  0  0
   -4.1300   -0.0306   -4.5107 C   0  0  1  0  0  4           0  0  0
   -5.7139    1.6639   -4.9664 C   0  0  0  0  0  4           0  0  0
   -3.0974   -0.0199   -1.7568 C   0  0  0  0  0  4           0  0  0
   -0.7336   -0.0112   -2.6184 C   0  0  0  0  0  4           0  0  0
    8.6644   -1.1334   -1.0328 C   0  0  0  0  0  4           0  0  0
    8.5323    0.8081    0.4724 C   0  0  0  0  0  4           0  0  0
    9.2888   -1.9508    0.1041 C   0  0  0  0  0  4           0  0  0
    9.1573   -0.0343    1.5899 C   0  0  0  0  0  4           0  0  0
   10.6284   -1.8739    2.1079 C   0  0  0  0  0  4           0  0  0
  1 25  2  0     0  0
  2 26  2  0     0  0
  3 27  1  0     0  0
  3 28  1  0     0  0
  4  5  1  0     0  0
  4 11  1  0     0  0
  5 10  2  0     0  0
  6 12  1  0     0  0
  6 31  1  0     0  0
  6 32  1  0     0  0
  7 10  1  0     0  0
  7 25  1  0     0  0
  8 26  1  0     0  0
  8 29  1  0     0  0
  8 30  1  0     0  0
  9 33  1  0     0  0
  9 34  1  0     0  0
  9 35  1  0     0  0
 10 13  1  0     0  0
 11 13  2  0     0  0
 11 29  1  0     0  0
 12 16  2  0     0  0
 12 17  1  0     0  0
 13 30  1  0     0  0
 14 18  2  0     0  0
 14 19  1  0     0  0
 14 25  1  0     0  0
 15 20  2  0     0  0
 15 21  1  0     0  0
 15 27  1  0     0  0
 16 18  1  0     0  0
 17 19  2  0     0  0
 20 22  1  0     0  0
 21 23  2  0     0  0
 22 24  2  0     0  0
 23 24  1  0     0  0
 26 27  1  0     0  0
 31 33  1  0     0  0
 32 34  1  0     0  0
M  END
> <standard_type>
pIC50

> <# Confs.>
25

> <canonical_smiles>
CN(CC1)CCN1C2=CC=C(C(NC3=NNC4=C3CN(C([C@H](C5=CC=CC=C5)OC)=O)C4)=O)C=C2

> <standard_relation>
=

> <Publication_ID>
nan

> <predicted_activity_value>
6.2839966563652006

> <actual_activity_value>
6.200659450546418

> <Compound>
20

> <standard_units>
nM

> hash
7939965660355082475

$$$$
20_
XXILIB    08252103493D 0   0.00000     0.00000

 35 39  0     1  0            999 V2000
    1.7144   -1.1455   -1.9841 O   0  0  0  0  0  2           0  0  0
   -1.8577   -0.0317   -5.2343 O   0  0  0  0  0  2           0  0  0
   -4.5275    1.3299   -4.5744 O   0  0  0  0  0  2           0  0  0
   -2.0475   -0.0071    0.6334 N   0  0  0  0  0  3           0  0  0
   -0.7770   -0.0000    1.1066 N   0  0  0  0  0  3           0  0  0
    7.8299   -0.2963   -0.3534 N   0  0  2  0  0  3           0  0  0
    1.3878    0.0000   -0.0000 N   0  0  0  0  0  3           0  0  0
   -2.1944   -0.0206   -2.9547 N   0  0  1  0  0  3           0  0  0
   10.6259   -0.1249    0.1945 N   0  0  2  0  0  3           0  0  0
    0.0000    0.0000    0.0000 C   0  0  0  0  0  4           0  0  0
   -2.0797   -0.0078   -0.7113 C   0  0  0  0  0  4           0  0  0
    6.4589   -0.3503   -0.5061 C   0  0  0  0  0  4           0  0  0
   -0.7943   -0.0032   -1.1543 C   0  0  0  0  0  4           0  0  0
    3.6246   -0.4683   -0.8132 C   0  0  0  0  0  4           0  0  0
   -4.4727   -0.7535   -5.7889 C   0  0  0  0  0  4           0  0  0
    5.8339   -1.3801   -1.2328 C   0  0  0  0  0  4           0  0  0
    5.6099    0.6204    0.0567 C   0  0  0  0  0  4           0  0  0
    4.4427   -1.4431   -1.3864 C   0  0  0  0  0  4           0  0  0
    4.2166    0.5683   -0.0905 C   0  0  0  0  0  4           0  0  0
   -4.7880   -2.1212   -5.7924 C   0  0  0  0  0  4           0  0  0
   -4.4966   -0.0546   -7.0043 C   0  0  0  0  0  4           0  0  0
   -5.1114   -2.7735   -6.9835 C   0  0  0  0  0  4           0  0  0
   -4.8197   -0.7086   -8.1946 C   0  0  0  0  0  4           0  0  0
   -5.1268   -2.0674   -8.1843 C   0  0  0  0  0  4           0  0  0
    2.1565   -0.5720   -0.9908 C   0  0  0  0  0  4           0  0  0
   -2.6286   -0.0316   -4.2693 C   0  0  0  0  0  4           0  0  0
   -4.1300   -0.0306   -4.5107 C   0  0  1  0  0  4           0  0  0
   -5.8527    1.5363   -4.1042 C   0  0  0  0  0  4           0  0  0
   -3.0974   -0.0199   -1.7568 C   0  0  0  0  0  4           0  0  0
   -0.7336   -0.0112   -2.6184 C   0  0  0  0  0  4           0  0  0
    8.5181   -1.4107    0.3067 C   0  0  0  0  0  4           0  0  0
    8.4888    1.0133   -0.2957 C   0  0  0  0  0  4           0  0  0
   10.0041   -1.4300   -0.0554 C   0  0  0  0  0  4           0  0  0
    9.9761    0.8966   -0.6341 C   0  0  0  0  0  4           0  0  0
   12.0601   -0.1777   -0.0866 C   0  0  0  0  0  4           0  0  0
  1 25  2  0     0  0
  2 26  2  0     0  0
  3 27  1  0     0  0
  3 28  1  0     0  0
  4  5  1  0     0  0
  4 11  1  0     0  0
  5 10  2  0     0  0
  6 12  1  0     0  0
  6 31  1  0     0  0
  6 32  1  0     0  0
  7 10  1  0     0  0
  7 25  1  0     0  0
  8 26  1  0     0  0
  8 29  1  0     0  0
  8 30  1  0     0  0
  9 33  1  0     0  0
  9 34  1  0     0  0
  9 35  1  0     0  0
 10 13  1  0     0  0
 11 13  2  0     0  0
 11 29  1  0     0  0
 12 16  2  0     0  0
 12 17  1  0     0  0
 13 30  1  0     0  0
 14 18  2  0     0  0
 14 19  1  0     0  0
 14 25  1  0     0  0
 15 20  2  0     0  0
 15 21  1  0     0  0
 15 27  1  0     0  0
 16 18  1  0     0  0
 17 19  2  0     0  0
 20 22  1  0     0  0
 21 23  2  0     0  0
 22 24  2  0     0  0
 23 24  1  0     0  0
 26 27  1  0     0  0
 31 33  1  0     0  0
 32 34  1  0     0  0
M  END
> <standard_type>
pIC50

> <# Confs.>
25

> <canonical_smiles>
CN(CC1)CCN1C2=CC=C(C(NC3=NNC4=C3CN(C([C@H](C5=CC=CC=C5)OC)=O)C4)=O)C=C2

> <standard_relation>
=

> <Publication_ID>
nan

> <predicted_activity_value>
6.2839966563652006

> <actual_activity_value>
6.200659450546418

> <Compound>
20

> <standard_units>
nM

> hash
7939965660355082475

$$$$
20_
XXILIB    08252103493D 0   0.00000     0.00000

 35 39  0     1  0            999 V2000
    1.7144   -0.0000   -2.2911 O   0  0  0  0  0  2           0  0  0
   -1.8577   -0.0317   -5.2343 O   0  0  0  0  0  2           0  0  0
   -4.4196    1.1478   -5.2459 O   0  0  0  0  0  2           0  0  0
   -2.0475   -0.0071    0.6334 N   0  0  0  0  0  3           0  0  0
   -0.7770    0.0000    1.1066 N   0  0  0  0  0  3           0  0  0
    7.8333    0.0386   -0.4788 N   0  0  2  0  0  3           0  0  0
    1.3878   -0.0000   -0.0000 N   0  0  0  0  0  3           0  0  0
   -2.1944   -0.0206   -2.9547 N   0  0  1  0  0  3           0  0  0
   10.2131   -1.4955   -0.2719 N   0  0  2  0  0  3           0  0  0
    0.0000    0.0000    0.0000 C   0  0  0  0  0  4           0  0  0
   -2.0797   -0.0078   -0.7113 C   0  0  0  0  0  4           0  0  0
    6.4607    0.0294   -0.6269 C   0  0  0  0  0  4           0  0  0
   -0.7943   -0.0032   -1.1543 C   0  0  0  0  0  4           0  0  0
    3.6246    0.0010   -0.9384 C   0  0  0  0  0  4           0  0  0
   -4.5562   -1.2603   -5.2721 C   0  0  0  0  0  4           0  0  0
    5.8344    0.5652   -1.7671 C   0  0  0  0  0  4           0  0  0
    5.6115   -0.5167    0.3530 C   0  0  0  0  0  4           0  0  0
    4.4424    0.5535   -1.9253 C   0  0  0  0  0  4           0  0  0
    4.2172   -0.5338    0.2063 C   0  0  0  0  0  4           0  0  0
   -4.9788   -2.4215   -4.6066 C   0  0  0  0  0  4           0  0  0
   -4.5505   -1.2532   -6.6743 C   0  0  0  0  0  4           0  0  0
   -5.3783   -3.5486   -5.3267 C   0  0  0  0  0  4           0  0  0
   -4.9497   -2.3815   -7.3930 C   0  0  0  0  0  4           0  0  0
   -5.3633   -3.5287   -6.7196 C   0  0  0  0  0  4           0  0  0
    2.1565    0.0000   -1.1440 C   0  0  0  0  0  4           0  0  0
   -2.6286   -0.0316   -4.2693 C   0  0  0  0  0  4           0  0  0
   -4.1300   -0.0306   -4.5107 C   0  0  1  0  0  4           0  0  0
   -4.6901    2.2637   -4.4084 C   0  0  0  0  0  4           0  0  0
   -3.0974   -0.0199   -1.7568 C   0  0  0  0  0  4           0  0  0
   -0.7336   -0.0112   -2.6184 C   0  0  0  0  0  4           0  0  0
    8.7461   -0.0231   -1.6209 C   0  0  0  0  0  4           0  0  0
    8.4837   -0.1027    0.8240 C   0  0  0  0  0  4           0  0  0
    9.5220   -1.3442   -1.5635 C   0  0  0  0  0  4           0  0  0
    9.2619   -1.4229    0.8499 C   0  0  0  0  0  4           0  0  0
   10.9569   -2.7536   -0.2330 C   0  0  0  0  0  4           0  0  0
  1 25  2  0     0  0
  2 26  2  0     0  0
  3 27  1  0     0  0
  3 28  1  0     0  0
  4  5  1  0     0  0
  4 11  1  0     0  0
  5 10  2  0     0  0
  6 12  1  0     0  0
  6 31  1  0     0  0
  6 32  1  0     0  0
  7 10  1  0     0  0
  7 25  1  0     0  0
  8 26  1  0     0  0
  8 29  1  0     0  0
  8 30  1  0     0  0
  9 33  1  0     0  0
  9 34  1  0     0  0
  9 35  1  0     0  0
 10 13  1  0     0  0
 11 13  2  0     0  0
 11 29  1  0     0  0
 12 16  2  0     0  0
 12 17  1  0     0  0
 13 30  1  0     0  0
 14 18  2  0     0  0
 14 19  1  0     0  0
 14 25  1  0     0  0
 15 20  2  0     0  0
 15 21  1  0     0  0
 15 27  1  0     0  0
 16 18  1  0     0  0
 17 19  2  0     0  0
 20 22  1  0     0  0
 21 23  2  0     0  0
 22 24  2  0     0  0
 23 24  1  0     0  0
 26 27  1  0     0  0
 31 33  1  0     0  0
 32 34  1  0     0  0
M  END
> <standard_type>
pIC50

> <# Confs.>
25

> <canonical_smiles>
CN(CC1)CCN1C2=CC=C(C(NC3=NNC4=C3CN(C([C@H](C5=CC=CC=C5)OC)=O)C4)=O)C=C2

> <standard_relation>
=

> <Publication_ID>
nan

> <predicted_activity_value>
6.2839966563652006

> <actual_activity_value>
6.200659450546418

> <Compound>
20

> <standard_units>
nM

> hash
7939965660355082475

$$$$
20_
XXILIB    08252103493D 0   0.00000     0.00000

 35 39  0     1  0            999 V2000
    1.7144    1.1455   -1.9841 O   0  0  0  0  0  2           0  0  0
   -1.8577   -0.0317   -5.2343 O   0  0  0  0  0  2           0  0  0
   -4.4196    1.1478   -5.2459 O   0  0  0  0  0  2           0  0  0
   -2.0475   -0.0071    0.6334 N   0  0  0  0  0  3           0  0  0
   -0.7770    0.0000    1.1066 N   0  0  0  0  0  3           0  0  0
    7.8333    0.2729   -0.3954 N   0  0  2  0  0  3           0  0  0
    1.3878   -0.0000   -0.0000 N   0  0  0  0  0  3           0  0  0
   -2.1944   -0.0206   -2.9547 N   0  0  1  0  0  3           0  0  0
   10.6359    0.0979    0.1164 N   0  0  2  0  0  3           0  0  0
    0.0000    0.0000    0.0000 C   0  0  0  0  0  4           0  0  0
   -2.0797   -0.0078   -0.7113 C   0  0  0  0  0  4           0  0  0
    6.4607    0.3389   -0.5282 C   0  0  0  0  0  4           0  0  0
   -0.7943   -0.0032   -1.1543 C   0  0  0  0  0  4           0  0  0
    3.6246    0.4700   -0.8122 C   0  0  0  0  0  4           0  0  0
   -4.5562   -1.2603   -5.2721 C   0  0  0  0  0  4           0  0  0
    5.8344    1.3730   -1.2478 C   0  0  0  0  0  4           0  0  0
    5.6115   -0.6240    0.0474 C   0  0  0  0  0  4           0  0  0
    4.4424    1.4420   -1.3906 C   0  0  0  0  0  4           0  0  0
    4.2172   -0.5654   -0.0883 C   0  0  0  0  0  4           0  0  0
   -4.9788   -2.4215   -4.6066 C   0  0  0  0  0  4           0  0  0
   -4.5505   -1.2532   -6.6743 C   0  0  0  0  0  4           0  0  0
   -5.3783   -3.5486   -5.3267 C   0  0  0  0  0  4           0  0  0
   -4.9497   -2.3815   -7.3930 C   0  0  0  0  0  4           0  0  0
   -5.3633   -3.5287   -6.7196 C   0  0  0  0  0  4           0  0  0
    2.1565    0.5720   -0.9908 C   0  0  0  0  0  4           0  0  0
   -2.6286   -0.0316   -4.2693 C   0  0  0  0  0  4           0  0  0
   -4.1300   -0.0306   -4.5107 C   0  0  1  0  0  4           0  0  0
   -5.7139    1.6639   -4.9664 C   0  0  0  0  0  4           0  0  0
   -3.0974   -0.0199   -1.7568 C   0  0  0  0  0  4           0  0  0
   -0.7336   -0.0112   -2.6184 C   0  0  0  0  0  4           0  0  0
    8.4740   -1.0395   -0.2600 C   0  0  0  0  0  4           0  0  0
    8.5492    1.4188    0.1762 C   0  0  0  0  0  4           0  0  0
    9.9566   -0.9673   -0.6296 C   0  0  0  0  0  4           0  0  0
   10.0288    1.3925   -0.2114 C   0  0  0  0  0  4           0  0  0
   12.0654    0.1085   -0.1917 C   0  0  0  0  0  4           0  0  0
  1 25  2  0     0  0
  2 26  2  0     0  0
  3 27  1  0     0  0
  3 28  1  0     0  0
  4  5  1  0     0  0
  4 11  1  0     0  0
  5 10  2  0     0  0
  6 12  1  0     0  0
  6 31  1  0     0  0
  6 32  1  0     0  0
  7 10  1  0     0  0
  7 25  1  0     0  0
  8 26  1  0     0  0
  8 29  1  0     0  0
  8 30  1  0     0  0
  9 33  1  0     0  0
  9 34  1  0     0  0
  9 35  1  0     0  0
 10 13  1  0     0  0
 11 13  2  0     0  0
 11 29  1  0     0  0
 12 16  2  0     0  0
 12 17  1  0     0  0
 13 30  1  0     0  0
 14 18  2  0     0  0
 14 19  1  0     0  0
 14 25  1  0     0  0
 15 20  2  0     0  0
 15 21  1  0     0  0
 15 27  1  0     0  0
 16 18  1  0     0  0
 17 19  2  0     0  0
 20 22  1  0     0  0
 21 23  2  0     0  0
 22 24  2  0     0  0
 23 24  1  0     0  0
 26 27  1  0     0  0
 31 33  1  0     0  0
 32 34  1  0     0  0
M  END
> <standard_type>
pIC50

> <# Confs.>
25

> <canonical_smiles>
CN(CC1)CCN1C2=CC=C(C(NC3=NNC4=C3CN(C([C@H](C5=CC=CC=C5)OC)=O)C4)=O)C=C2

> <standard_relation>
=

> <Publication_ID>
nan

> <predicted_activity_value>
6.2839966563652006

> <actual_activity_value>
6.200659450546418

> <Compound>
20

> <standard_units>
nM

> hash
7939965660355082475

$$$$
20_
XXILIB    08252103493D 0   0.00000     0.00000

 35 39  0     1  0            999 V2000
    1.7144    0.0000    2.2911 O   0  0  0  0  0  2           0  0  0
   -1.8577   -0.0317   -5.2343 O   0  0  0  0  0  2           0  0  0
   -4.6370   -1.2084   -3.9036 O   0  0  0  0  0  2           0  0  0
   -2.0475   -0.0071    0.6334 N   0  0  0  0  0  3           0  0  0
   -0.7770    0.0000    1.1066 N   0  0  0  0  0  3           0  0  0
    7.8299    0.0799    0.4542 N   0  0  2  0  0  3           0  0  0
    1.3878   -0.0000    0.0000 N   0  0  0  0  0  3           0  0  0
   -2.1944   -0.0206   -2.9547 N   0  0  1  0  0  3           0  0  0
   10.6518   -0.0929    0.0614 N   0  0  2  0  0  3           0  0  0
    0.0000    0.0000    0.0000 C   0  0  0  0  0  4           0  0  0
   -2.0797   -0.0078   -0.7113 C   0  0  0  0  0  4           0  0  0
    6.4589    0.0503    0.6135 C   0  0  0  0  0  4           0  0  0
   -0.7943   -0.0032   -1.1543 C   0  0  0  0  0  4           0  0  0
    3.6246   -0.0010    0.9384 C   0  0  0  0  0  4           0  0  0
   -4.7718    1.1999   -3.9210 C   0  0  0  0  0  4           0  0  0
    5.8339    0.5788    1.7577 C   0  0  0  0  0  4           0  0  0
    5.6099   -0.5090   -0.3593 C   0  0  0  0  0  4           0  0  0
    4.4427    0.5566    1.9222 C   0  0  0  0  0  4           0  0  0
    4.2166   -0.5374   -0.2058 C   0  0  0  0  0  4           0  0  0
   -4.0893    2.4252   -3.8673 C   0  0  0  0  0  4           0  0  0
   -6.0825    1.1380   -3.4268 C   0  0  0  0  0  4           0  0  0
   -4.7012    3.5570   -3.3258 C   0  0  0  0  0  4           0  0  0
   -6.6928    2.2707   -2.8850 C   0  0  0  0  0  4           0  0  0
   -6.0024    3.4796   -2.8344 C   0  0  0  0  0  4           0  0  0
    2.1565   -0.0000    1.1440 C   0  0  0  0  0  4           0  0  0
   -2.6286   -0.0316   -4.2693 C   0  0  0  0  0  4           0  0  0
   -4.1300   -0.0306   -4.5107 C   0  0  1  0  0  4           0  0  0
   -4.6327   -2.3241   -4.7839 C   0  0  0  0  0  4           0  0  0
   -3.0974   -0.0199   -1.7568 C   0  0  0  0  0  4           0  0  0
   -0.7336   -0.0112   -2.6184 C   0  0  0  0  0  4           0  0  0
    8.3887    0.1602   -0.8996 C   0  0  0  0  0  4           0  0  0
    8.6796   -0.5287    1.4838 C   0  0  0  0  0  4           0  0  0
    9.8258    0.6835   -0.8700 C   0  0  0  0  0  4           0  0  0
   10.1050    0.0226    1.4178 C   0  0  0  0  0  4           0  0  0
   12.0384    0.3704    0.0257 C   0  0  0  0  0  4           0  0  0
  1 25  2  0     0  0
  2 26  2  0     0  0
  3 27  1  0     0  0
  3 28  1  0     0  0
  4  5  1  0     0  0
  4 11  1  0     0  0
  5 10  2  0     0  0
  6 12  1  0     0  0
  6 31  1  0     0  0
  6 32  1  0     0  0
  7 10  1  0     0  0
  7 25  1  0     0  0
  8 26  1  0     0  0
  8 29  1  0     0  0
  8 30  1  0     0  0
  9 33  1  0     0  0
  9 34  1  0     0  0
  9 35  1  0     0  0
 10 13  1  0     0  0
 11 13  2  0     0  0
 11 29  1  0     0  0
 12 16  2  0     0  0
 12 17  1  0     0  0
 13 30  1  0     0  0
 14 18  2  0     0  0
 14 19  1  0     0  0
 14 25  1  0     0  0
 15 20  2  0     0  0
 15 21  1  0     0  0
 15 27  1  0     0  0
 16 18  1  0     0  0
 17 19  2  0     0  0
 20 22  1  0     0  0
 21 23  2  0     0  0
 22 24  2  0     0  0
 23 24  1  0     0  0
 26 27  1  0     0  0
 31 33  1  0     0  0
 32 34  1  0     0  0
M  END
> <standard_type>
pIC50

> <# Confs.>
25

> <canonical_smiles>
CN(CC1)CCN1C2=CC=C(C(NC3=NNC4=C3CN(C([C@H](C5=CC=CC=C5)OC)=O)C4)=O)C=C2

> <standard_relation>
=

> <Publication_ID>
nan

> <predicted_activity_value>
6.2839966563652006

> <actual_activity_value>
6.200659450546418

> <Compound>
20

> <standard_units>
nM

> hash
7939965660355082475

$$$$
20_
XXILIB    08252103493D 0   0.00000     0.00000

 35 39  0     1  0            999 V2000
    1.7144    0.0000    2.2911 O   0  0  0  0  0  2           0  0  0
   -1.8577   -0.0317   -5.2343 O   0  0  0  0  0  2           0  0  0
   -4.6370   -1.2084   -3.9036 O   0  0  0  0  0  2           0  0  0
   -2.0475   -0.0071    0.6334 N   0  0  0  0  0  3           0  0  0
   -0.7770    0.0000    1.1066 N   0  0  0  0  0  3           0  0  0
    7.8333   -0.0386    0.4788 N   0  0  2  0  0  3           0  0  0
    1.3878    0.0000    0.0000 N   0  0  0  0  0  3           0  0  0
   -2.1944   -0.0206   -2.9547 N   0  0  1  0  0  3           0  0  0
   10.6359   -0.1430   -0.0519 N   0  0  2  0  0  3           0  0  0
    0.0000    0.0000    0.0000 C   0  0  0  0  0  4           0  0  0
   -2.0797   -0.0078   -0.7113 C   0  0  0  0  0  4           0  0  0
    6.4607   -0.0294    0.6269 C   0  0  0  0  0  4           0  0  0
   -0.7943   -0.0032   -1.1543 C   0  0  0  0  0  4           0  0  0
    3.6246   -0.0010    0.9384 C   0  0  0  0  0  4           0  0  0
   -4.7718    1.1999   -3.9210 C   0  0  0  0  0  4           0  0  0
    5.8344   -0.5652    1.7671 C   0  0  0  0  0  4           0  0  0
    5.6115    0.5167   -0.3530 C   0  0  0  0  0  4           0  0  0
    4.4424   -0.5535    1.9253 C   0  0  0  0  0  4           0  0  0
    4.2172    0.5338   -0.2063 C   0  0  0  0  0  4           0  0  0
   -4.0893    2.4252   -3.8673 C   0  0  0  0  0  4           0  0  0
   -6.0825    1.1380   -3.4268 C   0  0  0  0  0  4           0  0  0
   -4.7012    3.5570   -3.3258 C   0  0  0  0  0  4           0  0  0
   -6.6928    2.2707   -2.8850 C   0  0  0  0  0  4           0  0  0
   -6.0024    3.4796   -2.8344 C   0  0  0  0  0  4           0  0  0
    2.1565    0.0000    1.1440 C   0  0  0  0  0  4           0  0  0
   -2.6286   -0.0316   -4.2693 C   0  0  0  0  0  4           0  0  0
   -4.1300   -0.0306   -4.5107 C   0  0  1  0  0  4           0  0  0
   -4.6327   -2.3241   -4.7839 C   0  0  0  0  0  4           0  0  0
   -3.0974   -0.0199   -1.7568 C   0  0  0  0  0  4           0  0  0
   -0.7336   -0.0112   -2.6184 C   0  0  0  0  0  4           0  0  0
    8.4740    1.0303   -0.2946 C   0  0  0  0  0  4           0  0  0
    8.5492   -1.3168    0.5568 C   0  0  0  0  0  4           0  0  0
    9.9566    1.1525    0.0616 C   0  0  0  0  0  4           0  0  0
   10.0288   -1.1003    0.8793 C   0  0  0  0  0  4           0  0  0
   12.0654    0.0019    0.2203 C   0  0  0  0  0  4           0  0  0
  1 25  2  0     0  0
  2 26  2  0     0  0
  3 27  1  0     0  0
  3 28  1  0     0  0
  4  5  1  0     0  0
  4 11  1  0     0  0
  5 10  2  0     0  0
  6 12  1  0     0  0
  6 31  1  0     0  0
  6 32  1  0     0  0
  7 10  1  0     0  0
  7 25  1  0     0  0
  8 26  1  0     0  0
  8 29  1  0     0  0
  8 30  1  0     0  0
  9 33  1  0     0  0
  9 34  1  0     0  0
  9 35  1  0     0  0
 10 13  1  0     0  0
 11 13  2  0     0  0
 11 29  1  0     0  0
 12 16  2  0     0  0
 12 17  1  0     0  0
 13 30  1  0     0  0
 14 18  2  0     0  0
 14 19  1  0     0  0
 14 25  1  0     0  0
 15 20  2  0     0  0
 15 21  1  0     0  0
 15 27  1  0     0  0
 16 18  1  0     0  0
 17 19  2  0     0  0
 20 22  1  0     0  0
 21 23  2  0     0  0
 22 24  2  0     0  0
 23 24  1  0     0  0
 26 27  1  0     0  0
 31 33  1  0     0  0
 32 34  1  0     0  0
M  END
> <standard_type>
pIC50

> <# Confs.>
25

> <canonical_smiles>
CN(CC1)CCN1C2=CC=C(C(NC3=NNC4=C3CN(C([C@H](C5=CC=CC=C5)OC)=O)C4)=O)C=C2

> <standard_relation>
=

> <Publication_ID>
nan

> <predicted_activity_value>
6.2839966563652006

> <actual_activity_value>
6.200659450546418

> <Compound>
20

> <standard_units>
nM

> hash
7939965660355082475

$$$$
10_
XXILIB    08252103493D 0   0.00000     0.00000

 33 37  0     1  0            999 V2000
    1.7803    0.0000   -0.0000 S   0  0  0  0  0  2           0  0  0
    3.0588   -5.1651    4.5430 O   0  0  0  0  0  2           0  0  0
   -0.9940    0.0227    3.9348 N   0  0  0  0  0  3           0  0  0
   -0.7593    0.0238    5.2572 N   0  0  0  0  0  3           0  0  0
   -0.6499   -0.0000    1.1793 N   0  0  0  0  0  3           0  0  0
   -0.5925    0.0264   -1.2120 N   0  0  0  0  0  3           0  0  0
   -2.7679    0.0276    2.3298 N   0  0  0  0  0  3           0  0  0
   -2.5770    0.0695   -2.4961 N   0  0  2  0  0  3           0  0  0
    2.8891   -2.9100    5.1147 N   0  0  0  0  0  3           0  0  0
   -3.7451    0.4274   -5.0722 N   0  0  2  0  0  3           0  0  0
    0.0000    0.0000    0.0000 C   0  0  0  0  0  4           0  0  0
    2.0917   -0.8728    1.5118 C   0  0  0  0  0  4           0  0  0
   -2.3209    0.0325    3.6051 C   0  0  0  0  0  4           0  0  0
   -2.0016    0.0121    1.1403 C   0  0  0  0  0  4           0  0  0
   -1.9480    0.0445   -1.2661 C   0  0  0  0  0  4           0  0  0
   -1.9852    0.0405    5.7947 C   0  0  0  0  0  4           0  0  0
    2.6224   -2.2598    3.8945 C   0  0  0  0  0  4           0  0  0
    2.2162   -0.1779    2.7190 C   0  0  0  0  0  4           0  0  0
    2.2390   -2.2636    1.5013 C   0  0  0  0  0  4           0  0  0
   -2.6800    0.0398   -0.0788 C   0  0  0  0  0  4           0  0  0
   -2.9954    0.0455    4.8038 C   0  0  0  0  0  4           0  0  0
    2.4780   -0.8686    3.9046 C   0  0  0  0  0  4           0  0  0
    2.5012   -2.9554    2.6869 C   0  0  0  0  0  4           0  0  0
    3.0718   -4.2586    5.3680 C   0  0  0  0  0  4           0  0  0
   -1.7264    0.0751   -3.6883 C   0  0  0  0  0  4           0  0  0
   -3.9018    0.6835   -2.6171 C   0  0  0  0  0  4           0  0  0
   -2.5142   -0.3584   -4.9256 C   0  0  0  0  0  4           0  0  0
   -4.6026    0.2258   -3.8982 C   0  0  0  0  0  4           0  0  0
   -4.4517    0.0463   -6.2950 C   0  0  0  0  0  4           0  0  0
   -2.1573    0.0391    7.2644 C   0  0  0  0  0  4           0  0  0
    3.3356   -4.5603    6.7954 C   0  0  1  0  0  4           0  0  0
    2.2904   -4.2153    7.8257 C   0  0  0  0  0  4           0  0  0
    2.5748   -5.6506    7.5050 C   0  0  0  0  0  4           0  0  0
  1 11  1  0     0  0
  1 12  1  0     0  0
  2 24  2  0     0  0
  3  4  1  0     0  0
  3 13  1  0     0  0
  4 16  2  0     0  0
  5 11  1  0     0  0
  5 14  2  0     0  0
  6 11  2  0     0  0
  6 15  1  0     0  0
  7 13  1  0     0  0
  7 14  1  0     0  0
  8 15  1  0     0  0
  8 25  1  0     0  0
  8 26  1  0     0  0
  9 17  1  0     0  0
  9 24  1  0     0  0
 10 27  1  0     0  0
 10 28  1  0     0  0
 10 29  1  0     0  0
 12 18  2  0     0  0
 12 19  1  0     0  0
 13 21  2  0     0  0
 14 20  1  0     0  0
 15 20  2  0     0  0
 16 21  1  0     0  0
 16 30  1  0     0  0
 17 22  2  0     0  0
 17 23  1  0     0  0
 18 22  1  0     0  0
 19 23  2  0     0  0
 24 31  1  0     0  0
 25 27  1  0     0  0
 26 28  1  0     0  0
 31 32  1  0     0  0
 31 33  1  0     0  0
 32 33  1  0     0  0
M  END
> <standard_type>
pIC50

> <# Confs.>
25

> <canonical_smiles>
CC1=NNC(NC2=NC(SC3=CC=C(NC(C4CC4)=O)C=C3)=NC(N5CCN(C)CC5)=C2)=C1

> <standard_relation>
=

> <Publication_ID>
nan

> <predicted_activity_value>
7.886056647693163

> <actual_activity_value>
7.7447274948966935

> <Compound>
10

> <standard_units>
nM

> hash
7402733853492314349

$$$$
10_
XXILIB    08252103493D 0   0.00000     0.00000

 33 37  0     1  0            999 V2000
    1.7803    0.0000   -0.0000 S   0  0  0  0  0  2           0  0  0
    3.0588   -5.1651    4.5430 O   0  0  0  0  0  2           0  0  0
   -0.9940    0.0227    3.9348 N   0  0  0  0  0  3           0  0  0
   -0.7593    0.0238    5.2572 N   0  0  0  0  0  3           0  0  0
   -0.6499   -0.0000    1.1793 N   0  0  0  0  0  3           0  0  0
   -0.5925    0.0264   -1.2120 N   0  0  0  0  0  3           0  0  0
   -2.7679    0.0276    2.3298 N   0  0  0  0  0  3           0  0  0
   -2.5770    0.0695   -2.4961 N   0  0  2  0  0  3           0  0  0
    2.8891   -2.9100    5.1147 N   0  0  0  0  0  3           0  0  0
   -3.7451    0.4274   -5.0722 N   0  0  2  0  0  3           0  0  0
    0.0000    0.0000    0.0000 C   0  0  0  0  0  4           0  0  0
    2.0917   -0.8728    1.5118 C   0  0  0  0  0  4           0  0  0
   -2.3209    0.0325    3.6051 C   0  0  0  0  0  4           0  0  0
   -2.0016    0.0121    1.1403 C   0  0  0  0  0  4           0  0  0
   -1.9480    0.0445   -1.2661 C   0  0  0  0  0  4           0  0  0
   -1.9852    0.0405    5.7947 C   0  0  0  0  0  4           0  0  0
    2.6224   -2.2598    3.8945 C   0  0  0  0  0  4           0  0  0
    2.2162   -0.1779    2.7190 C   0  0  0  0  0  4           0  0  0
    2.2390   -2.2636    1.5013 C   0  0  0  0  0  4           0  0  0
   -2.6800    0.0398   -0.0788 C   0  0  0  0  0  4           0  0  0
   -2.9954    0.0455    4.8038 C   0  0  0  0  0  4           0  0  0
    2.4780   -0.8686    3.9046 C   0  0  0  0  0  4           0  0  0
    2.5012   -2.9554    2.6869 C   0  0  0  0  0  4           0  0  0
    3.0718   -4.2586    5.3680 C   0  0  0  0  0  4           0  0  0
   -1.7264    0.0751   -3.6883 C   0  0  0  0  0  4           0  0  0
   -3.9018    0.6835   -2.6171 C   0  0  0  0  0  4           0  0  0
   -2.5142   -0.3584   -4.9256 C   0  0  0  0  0  4           0  0  0
   -4.6026    0.2258   -3.8982 C   0  0  0  0  0  4           0  0  0
   -4.4517    0.0463   -6.2950 C   0  0  0  0  0  4           0  0  0
   -2.1573    0.0391    7.2644 C   0  0  0  0  0  4           0  0  0
    3.3356   -4.5603    6.7954 C   0  0  1  0  0  4           0  0  0
    4.6427   -5.2047    7.1818 C   0  0  0  0  0  4           0  0  0
    4.3704   -3.7832    7.5678 C   0  0  0  0  0  4           0  0  0
  1 11  1  0     0  0
  1 12  1  0     0  0
  2 24  2  0     0  0
  3  4  1  0     0  0
  3 13  1  0     0  0
  4 16  2  0     0  0
  5 11  1  0     0  0
  5 14  2  0     0  0
  6 11  2  0     0  0
  6 15  1  0     0  0
  7 13  1  0     0  0
  7 14  1  0     0  0
  8 15  1  0     0  0
  8 25  1  0     0  0
  8 26  1  0     0  0
  9 17  1  0     0  0
  9 24  1  0     0  0
 10 27  1  0     0  0
 10 28  1  0     0  0
 10 29  1  0     0  0
 12 18  2  0     0  0
 12 19  1  0     0  0
 13 21  2  0     0  0
 14 20  1  0     0  0
 15 20  2  0     0  0
 16 21  1  0     0  0
 16 30  1  0     0  0
 17 22  2  0     0  0
 17 23  1  0     0  0
 18 22  1  0     0  0
 19 23  2  0     0  0
 24 31  1  0     0  0
 25 27  1  0     0  0
 26 28  1  0     0  0
 31 32  1  0     0  0
 31 33  1  0     0  0
 32 33  1  0     0  0
M  END
> <standard_type>
pIC50

> <# Confs.>
25

> <canonical_smiles>
CC1=NNC(NC2=NC(SC3=CC=C(NC(C4CC4)=O)C=C3)=NC(N5CCN(C)CC5)=C2)=C1

> <standard_relation>
=

> <Publication_ID>
nan

> <predicted_activity_value>
7.886056647693163

> <actual_activity_value>
7.7447274948966935

> <Compound>
10

> <standard_units>
nM

> hash
7402733853492314349

$$$$
10_
XXILIB    08252103493D 0   0.00000     0.00000

 33 37  0     1  0            999 V2000
    1.7803    0.0000   -0.0000 S   0  0  0  0  0  2           0  0  0
    3.0588   -5.1651    4.5430 O   0  0  0  0  0  2           0  0  0
   -0.9940    0.0227    3.9348 N   0  0  0  0  0  3           0  0  0
   -0.7593    0.0238    5.2572 N   0  0  0  0  0  3           0  0  0
   -0.6499   -0.0000    1.1793 N   0  0  0  0  0  3           0  0  0
   -0.5925    0.0264   -1.2120 N   0  0  0  0  0  3           0  0  0
   -2.7679    0.0276    2.3298 N   0  0  0  0  0  3           0  0  0
   -2.5770    0.0695   -2.4961 N   0  0  2  0  0  3           0  0  0
    2.8891   -2.9100    5.1147 N   0  0  0  0  0  3           0  0  0
   -2.8893    1.9674   -4.5802 N   0  0  2  0  0  3           0  0  0
    0.0000    0.0000    0.0000 C   0  0  0  0  0  4           0  0  0
    2.0917   -0.8728    1.5118 C   0  0  0  0  0  4           0  0  0
   -2.3209    0.0325    3.6051 C   0  0  0  0  0  4           0  0  0
   -2.0016    0.0121    1.1403 C   0  0  0  0  0  4           0  0  0
   -1.9480    0.0445   -1.2661 C   0  0  0  0  0  4           0  0  0
   -1.9852    0.0405    5.7947 C   0  0  0  0  0  4           0  0  0
    2.6224   -2.2598    3.8945 C   0  0  0  0  0  4           0  0  0
    2.2162   -0.1779    2.7190 C   0  0  0  0  0  4           0  0  0
    2.2390   -2.2636    1.5013 C   0  0  0  0  0  4           0  0  0
   -2.6800    0.0398   -0.0788 C   0  0  0  0  0  4           0  0  0
   -2.9954    0.0455    4.8038 C   0  0  0  0  0  4           0  0  0
    2.4780   -0.8686    3.9046 C   0  0  0  0  0  4           0  0  0
    2.5012   -2.9554    2.6869 C   0  0  0  0  0  4           0  0  0
    3.0718   -4.2586    5.3680 C   0  0  0  0  0  4           0  0  0
   -3.8786    0.7089   -2.6897 C   0  0  0  0  0  4           0  0  0
   -1.7962   -0.0834   -3.7233 C   0  0  0  0  0  4           0  0  0
   -3.6572    2.0860   -3.3273 C   0  0  0  0  0  4           0  0  0
   -1.5950    1.2992   -4.3548 C   0  0  0  0  0  4           0  0  0
   -2.6904    3.2832   -5.1863 C   0  0  0  0  0  4           0  0  0
   -2.1573    0.0391    7.2644 C   0  0  0  0  0  4           0  0  0
    3.3356   -4.5603    6.7954 C   0  0  1  0  0  4           0  0  0
    2.2904   -4.2153    7.8257 C   0  0  0  0  0  4           0  0  0
    2.5748   -5.6506    7.5050 C   0  0  0  0  0  4           0  0  0
  1 11  1  0     0  0
  1 12  1  0     0  0
  2 24  2  0     0  0
  3  4  1  0     0  0
  3 13  1  0     0  0
  4 16  2  0     0  0
  5 11  1  0     0  0
  5 14  2  0     0  0
  6 11  2  0     0  0
  6 15  1  0     0  0
  7 13  1  0     0  0
  7 14  1  0     0  0
  8 15  1  0     0  0
  8 25  1  0     0  0
  8 26  1  0     0  0
  9 17  1  0     0  0
  9 24  1  0     0  0
 10 27  1  0     0  0
 10 28  1  0     0  0
 10 29  1  0     0  0
 12 18  2  0     0  0
 12 19  1  0     0  0
 13 21  2  0     0  0
 14 20  1  0     0  0
 15 20  2  0     0  0
 16 21  1  0     0  0
 16 30  1  0     0  0
 17 22  2  0     0  0
 17 23  1  0     0  0
 18 22  1  0     0  0
 19 23  2  0     0  0
 24 31  1  0     0  0
 25 27  1  0     0  0
 26 28  1  0     0  0
 31 32  1  0     0  0
 31 33  1  0     0  0
 32 33  1  0     0  0
M  END
> <standard_type>
pIC50

> <# Confs.>
25

> <canonical_smiles>
CC1=NNC(NC2=NC(SC3=CC=C(NC(C4CC4)=O)C=C3)=NC(N5CCN(C)CC5)=C2)=C1

> <standard_relation>
=

> <Publication_ID>
nan

> <predicted_activity_value>
7.886056647693163

> <actual_activity_value>
7.7447274948966935

> <Compound>
10

> <standard_units>
nM

> hash
7402733853492314349

$$$$
10_
XXILIB    08252103493D 0   0.00000     0.00000

 33 37  0     1  0            999 V2000
    1.7803    0.0000   -0.0000 S   0  0  0  0  0  2           0  0  0
    3.0588   -5.1651    4.5430 O   0  0  0  0  0  2           0  0  0
   -0.9940    0.0227    3.9348 N   0  0  0  0  0  3           0  0  0
   -0.7593    0.0238    5.2572 N   0  0  0  0  0  3           0  0  0
   -0.6499    0.0000    1.1793 N   0  0  0  0  0  3           0  0  0
   -0.5925    0.0264   -1.2120 N   0  0  0  0  0  3           0  0  0
   -2.7679    0.0276    2.3298 N   0  0  0  0  0  3           0  0  0
   -2.5770    0.0695   -2.4961 N   0  0  2  0  0  3           0  0  0
    2.8891   -2.9100    5.1147 N   0  0  0  0  0  3           0  0  0
   -3.0012   -1.4851   -4.8290 N   0  0  2  0  0  3           0  0  0
    0.0000    0.0000    0.0000 C   0  0  0  0  0  4           0  0  0
    2.0917   -0.8728    1.5118 C   0  0  0  0  0  4           0  0  0
   -2.3209    0.0325    3.6051 C   0  0  0  0  0  4           0  0  0
   -2.0016    0.0121    1.1403 C   0  0  0  0  0  4           0  0  0
   -1.9480    0.0445   -1.2661 C   0  0  0  0  0  4           0  0  0
   -1.9852    0.0405    5.7947 C   0  0  0  0  0  4           0  0  0
    2.6224   -2.2598    3.8945 C   0  0  0  0  0  4           0  0  0
    2.2162   -0.1779    2.7190 C   0  0  0  0  0  4           0  0  0
    2.2390   -2.2636    1.5013 C   0  0  0  0  0  4           0  0  0
   -2.6800    0.0398   -0.0788 C   0  0  0  0  0  4           0  0  0
   -2.9954    0.0455    4.8038 C   0  0  0  0  0  4           0  0  0
    2.4780   -0.8686    3.9046 C   0  0  0  0  0  4           0  0  0
    2.5012   -2.9554    2.6869 C   0  0  0  0  0  4           0  0  0
    3.0718   -4.2586    5.3680 C   0  0  0  0  0  4           0  0  0
   -3.8929   -0.5244   -2.7273 C   0  0  0  0  0  4           0  0  0
   -1.8285    0.3871   -3.7112 C   0  0  0  0  0  4           0  0  0
   -3.7240   -1.7861   -3.5812 C   0  0  0  0  0  4           0  0  0
   -1.6834   -0.8891   -4.5483 C   0  0  0  0  0  4           0  0  0
   -2.8566   -2.6920   -5.6421 C   0  0  0  0  0  4           0  0  0
   -2.1573    0.0391    7.2644 C   0  0  0  0  0  4           0  0  0
    3.3356   -4.5603    6.7954 C   0  0  1  0  0  4           0  0  0
    2.2904   -4.2153    7.8257 C   0  0  0  0  0  4           0  0  0
    2.5748   -5.6506    7.5050 C   0  0  0  0  0  4           0  0  0
  1 11  1  0     0  0
  1 12  1  0     0  0
  2 24  2  0     0  0
  3  4  1  0     0  0
  3 13  1  0     0  0
  4 16  2  0     0  0
  5 11  1  0     0  0
  5 14  2  0     0  0
  6 11  2  0     0  0
  6 15  1  0     0  0
  7 13  1  0     0  0
  7 14  1  0     0  0
  8 15  1  0     0  0
  8 25  1  0     0  0
  8 26  1  0     0  0
  9 17  1  0     0  0
  9 24  1  0     0  0
 10 27  1  0     0  0
 10 28  1  0     0  0
 10 29  1  0     0  0
 12 18  2  0     0  0
 12 19  1  0     0  0
 13 21  2  0     0  0
 14 20  1  0     0  0
 15 20  2  0     0  0
 16 21  1  0     0  0
 16 30  1  0     0  0
 17 22  2  0     0  0
 17 23  1  0     0  0
 18 22  1  0     0  0
 19 23  2  0     0  0
 24 31  1  0     0  0
 25 27  1  0     0  0
 26 28  1  0     0  0
 31 32  1  0     0  0
 31 33  1  0     0  0
 32 33  1  0     0  0
M  END
> <standard_type>
pIC50

> <# Confs.>
25

> <canonical_smiles>
CC1=NNC(NC2=NC(SC3=CC=C(NC(C4CC4)=O)C=C3)=NC(N5CCN(C)CC5)=C2)=C1

> <standard_relation>
=

> <Publication_ID>
nan

> <predicted_activity_value>
7.886056647693163

> <actual_activity_value>
7.7447274948966935

> <Compound>
10

> <standard_units>
nM

> hash
7402733853492314349

$$$$
10_
XXILIB    08252103493D 0   0.00000     0.00000

 33 37  0     1  0            999 V2000
    1.7803    0.0000   -0.0000 S   0  0  0  0  0  2           0  0  0
    3.0588   -5.1651    4.5430 O   0  0  0  0  0  2           0  0  0
   -0.9940    0.0227    3.9348 N   0  0  0  0  0  3           0  0  0
   -0.7593    0.0238    5.2572 N   0  0  0  0  0  3           0  0  0
   -0.6499   -0.0000    1.1793 N   0  0  0  0  0  3           0  0  0
   -0.5925    0.0264   -1.2120 N   0  0  0  0  0  3           0  0  0
   -2.7679    0.0276    2.3298 N   0  0  0  0  0  3           0  0  0
   -2.5770    0.0695   -2.4961 N   0  0  2  0  0  3           0  0  0
    2.8891   -2.9100    5.1147 N   0  0  0  0  0  3           0  0  0
   -2.8893    1.9674   -4.5802 N   0  0  2  0  0  3           0  0  0
    0.0000    0.0000    0.0000 C   0  0  0  0  0  4           0  0  0
    2.0917   -0.8728    1.5118 C   0  0  0  0  0  4           0  0  0
   -2.3209    0.0325    3.6051 C   0  0  0  0  0  4           0  0  0
   -2.0016    0.0121    1.1403 C   0  0  0  0  0  4           0  0  0
   -1.9480    0.0445   -1.2661 C   0  0  0  0  0  4           0  0  0
   -1.9852    0.0405    5.7947 C   0  0  0  0  0  4           0  0  0
    2.6224   -2.2598    3.8945 C   0  0  0  0  0  4           0  0  0
    2.2162   -0.1779    2.7190 C   0  0  0  0  0  4           0  0  0
    2.2390   -2.2636    1.5013 C   0  0  0  0  0  4           0  0  0
   -2.6800    0.0398   -0.0788 C   0  0  0  0  0  4           0  0  0
   -2.9954    0.0455    4.8038 C   0  0  0  0  0  4           0  0  0
    2.4780   -0.8686    3.9046 C   0  0  0  0  0  4           0  0  0
    2.5012   -2.9554    2.6869 C   0  0  0  0  0  4           0  0  0
    3.0718   -4.2586    5.3680 C   0  0  0  0  0  4           0  0  0
   -3.8786    0.7089   -2.6897 C   0  0  0  0  0  4           0  0  0
   -1.7962   -0.0834   -3.7233 C   0  0  0  0  0  4           0  0  0
   -3.6572    2.0860   -3.3273 C   0  0  0  0  0  4           0  0  0
   -1.5950    1.2992   -4.3548 C   0  0  0  0  0  4           0  0  0
   -2.6904    3.2832   -5.1863 C   0  0  0  0  0  4           0  0  0
   -2.1573    0.0391    7.2644 C   0  0  0  0  0  4           0  0  0
    3.3356   -4.5603    6.7954 C   0  0  1  0  0  4           0  0  0
    4.6427   -5.2047    7.1818 C   0  0  0  0  0  4           0  0  0
    4.3704   -3.7832    7.5678 C   0  0  0  0  0  4           0  0  0
  1 11  1  0     0  0
  1 12  1  0     0  0
  2 24  2  0     0  0
  3  4  1  0     0  0
  3 13  1  0     0  0
  4 16  2  0     0  0
  5 11  1  0     0  0
  5 14  2  0     0  0
  6 11  2  0     0  0
  6 15  1  0     0  0
  7 13  1  0     0  0
  7 14  1  0     0  0
  8 15  1  0     0  0
  8 25  1  0     0  0
  8 26  1  0     0  0
  9 17  1  0     0  0
  9 24  1  0     0  0
 10 27  1  0     0  0
 10 28  1  0     0  0
 10 29  1  0     0  0
 12 18  2  0     0  0
 12 19  1  0     0  0
 13 21  2  0     0  0
 14 20  1  0     0  0
 15 20  2  0     0  0
 16 21  1  0     0  0
 16 30  1  0     0  0
 17 22  2  0     0  0
 17 23  1  0     0  0
 18 22  1  0     0  0
 19 23  2  0     0  0
 24 31  1  0     0  0
 25 27  1  0     0  0
 26 28  1  0     0  0
 31 32  1  0     0  0
 31 33  1  0     0  0
 32 33  1  0     0  0
M  END
> <standard_type>
pIC50

> <# Confs.>
25

> <canonical_smiles>
CC1=NNC(NC2=NC(SC3=CC=C(NC(C4CC4)=O)C=C3)=NC(N5CCN(C)CC5)=C2)=C1

> <standard_relation>
=

> <Publication_ID>
nan

> <predicted_activity_value>
7.886056647693163

> <actual_activity_value>
7.7447274948966935

> <Compound>
10

> <standard_units>
nM

> hash
7402733853492314349

$$$$
10_
XXILIB    08252103493D 0   0.00000     0.00000

 33 37  0     1  0            999 V2000
    1.7803   -0.0000   -0.0000 S   0  0  0  0  0  2           0  0  0
    3.0588   -2.2017    6.5169 O   0  0  0  0  0  2           0  0  0
   -0.9940    0.0227    3.9348 N   0  0  0  0  0  3           0  0  0
   -0.7593    0.0238    5.2572 N   0  0  0  0  0  3           0  0  0
   -0.6499   -0.0000    1.1793 N   0  0  0  0  0  3           0  0  0
   -0.5925    0.0264   -1.2120 N   0  0  0  0  0  3           0  0  0
   -2.7679    0.0276    2.3298 N   0  0  0  0  0  3           0  0  0
   -2.5770    0.0695   -2.4961 N   0  0  2  0  0  3           0  0  0
    2.8891    0.0372    5.8844 N   0  0  0  0  0  3           0  0  0
   -3.7451    0.4274   -5.0722 N   0  0  2  0  0  3           0  0  0
    0.0000    0.0000    0.0000 C   0  0  0  0  0  4           0  0  0
    2.0917   -0.0000    1.7457 C   0  0  0  0  0  4           0  0  0
   -2.3209    0.0325    3.6051 C   0  0  0  0  0  4           0  0  0
   -2.0016    0.0121    1.1403 C   0  0  0  0  0  4           0  0  0
   -1.9480    0.0445   -1.2661 C   0  0  0  0  0  4           0  0  0
   -1.9852    0.0405    5.7947 C   0  0  0  0  0  4           0  0  0
    2.6224   -0.0098    4.5027 C   0  0  0  0  0  4           0  0  0
    2.2162    1.2055    2.4437 C   0  0  0  0  0  4           0  0  0
    2.2390   -1.2097    2.4320 C   0  0  0  0  0  4           0  0  0
   -2.6800    0.0398   -0.0788 C   0  0  0  0  0  4           0  0  0
   -2.9954    0.0455    4.8038 C   0  0  0  0  0  4           0  0  0
    2.4780    1.2000    3.8158 C   0  0  0  0  0  4           0  0  0
    2.5012   -1.2160    3.8046 C   0  0  0  0  0  4           0  0  0
    3.0718   -1.0041    6.7782 C   0  0  0  0  0  4           0  0  0
   -1.7264    0.0751   -3.6883 C   0  0  0  0  0  4           0  0  0
   -3.9018    0.6835   -2.6171 C   0  0  0  0  0  4           0  0  0
   -2.5142   -0.3584   -4.9256 C   0  0  0  0  0  4           0  0  0
   -4.6026    0.2258   -3.8982 C   0  0  0  0  0  4           0  0  0
   -4.4517    0.0463   -6.2950 C   0  0  0  0  0  4           0  0  0
   -2.1573    0.0391    7.2644 C   0  0  0  0  0  4           0  0  0
    3.3356   -0.5516    8.1651 C   0  0  1  0  0  4           0  0  0
    2.2904    0.2623    8.8849 C   0  0  0  0  0  4           0  0  0
    2.5748   -1.1411    9.3248 C   0  0  0  0  0  4           0  0  0
  1 11  1  0     0  0
  1 12  1  0     0  0
  2 24  2  0     0  0
  3  4  1  0     0  0
  3 13  1  0     0  0
  4 16  2  0     0  0
  5 11  1  0     0  0
  5 14  2  0     0  0
  6 11  2  0     0  0
  6 15  1  0     0  0
  7 13  1  0     0  0
  7 14  1  0     0  0
  8 15  1  0     0  0
  8 25  1  0     0  0
  8 26  1  0     0  0
  9 17  1  0     0  0
  9 24  1  0     0  0
 10 27  1  0     0  0
 10 28  1  0     0  0
 10 29  1  0     0  0
 12 18  2  0     0  0
 12 19  1  0     0  0
 13 21  2  0     0  0
 14 20  1  0     0  0
 15 20  2  0     0  0
 16 21  1  0     0  0
 16 30  1  0     0  0
 17 22  2  0     0  0
 17 23  1  0     0  0
 18 22  1  0     0  0
 19 23  2  0     0  0
 24 31  1  0     0  0
 25 27  1  0     0  0
 26 28  1  0     0  0
 31 32  1  0     0  0
 31 33  1  0     0  0
 32 33  1  0     0  0
M  END
> <standard_type>
pIC50

> <# Confs.>
25

> <canonical_smiles>
CC1=NNC(NC2=NC(SC3=CC=C(NC(C4CC4)=O)C=C3)=NC(N5CCN(C)CC5)=C2)=C1

> <standard_relation>
=

> <Publication_ID>
nan

> <predicted_activity_value>
7.886056647693163

> <actual_activity_value>
7.7447274948966935

> <Compound>
10

> <standard_units>
nM

> hash
7402733853492314349

$$$$
10_
XXILIB    08252103493D 0   0.00000     0.00000

 33 37  0     1  0            999 V2000
    1.7803    0.0000   -0.0000 S   0  0  0  0  0  2           0  0  0
    3.0588   -5.1651    4.5430 O   0  0  0  0  0  2           0  0  0
   -0.9940    0.0227    3.9348 N   0  0  0  0  0  3           0  0  0
   -0.7593    0.0238    5.2572 N   0  0  0  0  0  3           0  0  0
   -0.6499    0.0000    1.1793 N   0  0  0  0  0  3           0  0  0
   -0.5925    0.0264   -1.2120 N   0  0  0  0  0  3           0  0  0
   -2.7679    0.0276    2.3298 N   0  0  0  0  0  3           0  0  0
   -2.5770    0.0695   -2.4961 N   0  0  2  0  0  3           0  0  0
    2.8891   -2.9100    5.1147 N   0  0  0  0  0  3           0  0  0
   -3.0012   -1.4851   -4.8290 N   0  0  2  0  0  3           0  0  0
    0.0000    0.0000    0.0000 C   0  0  0  0  0  4           0  0  0
    2.0917   -0.8728    1.5118 C   0  0  0  0  0  4           0  0  0
   -2.3209    0.0325    3.6051 C   0  0  0  0  0  4           0  0  0
   -2.0016    0.0121    1.1403 C   0  0  0  0  0  4           0  0  0
   -1.9480    0.0445   -1.2661 C   0  0  0  0  0  4           0  0  0
   -1.9852    0.0405    5.7947 C   0  0  0  0  0  4           0  0  0
    2.6224   -2.2598    3.8945 C   0  0  0  0  0  4           0  0  0
    2.2162   -0.1779    2.7190 C   0  0  0  0  0  4           0  0  0
    2.2390   -2.2636    1.5013 C   0  0  0  0  0  4           0  0  0
   -2.6800    0.0398   -0.0788 C   0  0  0  0  0  4           0  0  0
   -2.9954    0.0455    4.8038 C   0  0  0  0  0  4           0  0  0
    2.4780   -0.8686    3.9046 C   0  0  0  0  0  4           0  0  0
    2.5012   -2.9554    2.6869 C   0  0  0  0  0  4           0  0  0
    3.0718   -4.2586    5.3680 C   0  0  0  0  0  4           0  0  0
   -3.8929   -0.5244   -2.7273 C   0  0  0  0  0  4           0  0  0
   -1.8285    0.3871   -3.7112 C   0  0  0  0  0  4           0  0  0
   -3.7240   -1.7861   -3.5812 C   0  0  0  0  0  4           0  0  0
   -1.6834   -0.8891   -4.5483 C   0  0  0  0  0  4           0  0  0
   -2.8566   -2.6920   -5.6421 C   0  0  0  0  0  4           0  0  0
   -2.1573    0.0391    7.2644 C   0  0  0  0  0  4           0  0  0
    3.3356   -4.5603    6.7954 C   0  0  1  0  0  4           0  0  0
    4.6427   -5.2047    7.1818 C   0  0  0  0  0  4           0  0  0
    4.3704   -3.7832    7.5678 C   0  0  0  0  0  4           0  0  0
  1 11  1  0     0  0
  1 12  1  0     0  0
  2 24  2  0     0  0
  3  4  1  0     0  0
  3 13  1  0     0  0
  4 16  2  0     0  0
  5 11  1  0     0  0
  5 14  2  0     0  0
  6 11  2  0     0  0
  6 15  1  0     0  0
  7 13  1  0     0  0
  7 14  1  0     0  0
  8 15  1  0     0  0
  8 25  1  0     0  0
  8 26  1  0     0  0
  9 17  1  0     0  0
  9 24  1  0     0  0
 10 27  1  0     0  0
 10 28  1  0     0  0
 10 29  1  0     0  0
 12 18  2  0     0  0
 12 19  1  0     0  0
 13 21  2  0     0  0
 14 20  1  0     0  0
 15 20  2  0     0  0
 16 21  1  0     0  0
 16 30  1  0     0  0
 17 22  2  0     0  0
 17 23  1  0     0  0
 18 22  1  0     0  0
 19 23  2  0     0  0
 24 31  1  0     0  0
 25 27  1  0     0  0
 26 28  1  0     0  0
 31 32  1  0     0  0
 31 33  1  0     0  0
 32 33  1  0     0  0
M  END
> <standard_type>
pIC50

> <# Confs.>
25

> <canonical_smiles>
CC1=NNC(NC2=NC(SC3=CC=C(NC(C4CC4)=O)C=C3)=NC(N5CCN(C)CC5)=C2)=C1

> <standard_relation>
=

> <Publication_ID>
nan

> <predicted_activity_value>
7.886056647693163

> <actual_activity_value>
7.7447274948966935

> <Compound>
10

> <standard_units>
nM

> hash
7402733853492314349

$$$$
10_
XXILIB    08252103493D 0   0.00000     0.00000

 33 37  0     1  0            999 V2000
    1.7803   -0.0000   -0.0000 S   0  0  0  0  0  2           0  0  0
    3.0588   -2.2017    6.5169 O   0  0  0  0  0  2           0  0  0
   -0.9940    0.0227    3.9348 N   0  0  0  0  0  3           0  0  0
   -0.7593    0.0238    5.2572 N   0  0  0  0  0  3           0  0  0
   -0.6499   -0.0000    1.1793 N   0  0  0  0  0  3           0  0  0
   -0.5925    0.0264   -1.2120 N   0  0  0  0  0  3           0  0  0
   -2.7679    0.0276    2.3298 N   0  0  0  0  0  3           0  0  0
   -2.5770    0.0695   -2.4961 N   0  0  2  0  0  3           0  0  0
    2.8891    0.0372    5.8844 N   0  0  0  0  0  3           0  0  0
   -3.7451    0.4274   -5.0722 N   0  0  2  0  0  3           0  0  0
    0.0000    0.0000    0.0000 C   0  0  0  0  0  4           0  0  0
    2.0917   -0.0000    1.7457 C   0  0  0  0  0  4           0  0  0
   -2.3209    0.0325    3.6051 C   0  0  0  0  0  4           0  0  0
   -2.0016    0.0121    1.1403 C   0  0  0  0  0  4           0  0  0
   -1.9480    0.0445   -1.2661 C   0  0  0  0  0  4           0  0  0
   -1.9852    0.0405    5.7947 C   0  0  0  0  0  4           0  0  0
    2.6224   -0.0098    4.5027 C   0  0  0  0  0  4           0  0  0
    2.2162    1.2055    2.4437 C   0  0  0  0  0  4           0  0  0
    2.2390   -1.2097    2.4320 C   0  0  0  0  0  4           0  0  0
   -2.6800    0.0398   -0.0788 C   0  0  0  0  0  4           0  0  0
   -2.9954    0.0455    4.8038 C   0  0  0  0  0  4           0  0  0
    2.4780    1.2000    3.8158 C   0  0  0  0  0  4           0  0  0
    2.5012   -1.2160    3.8046 C   0  0  0  0  0  4           0  0  0
    3.0718   -1.0041    6.7782 C   0  0  0  0  0  4           0  0  0
   -1.7264    0.0751   -3.6883 C   0  0  0  0  0  4           0  0  0
   -3.9018    0.6835   -2.6171 C   0  0  0  0  0  4           0  0  0
   -2.5142   -0.3584   -4.9256 C   0  0  0  0  0  4           0  0  0
   -4.6026    0.2258   -3.8982 C   0  0  0  0  0  4           0  0  0
   -4.4517    0.0463   -6.2950 C   0  0  0  0  0  4           0  0  0
   -2.1573    0.0391    7.2644 C   0  0  0  0  0  4           0  0  0
    3.3356   -0.5516    8.1651 C   0  0  1  0  0  4           0  0  0
    4.6427   -0.9165    8.8219 C   0  0  0  0  0  4           0  0  0
    4.3704    0.5076    8.4455 C   0  0  0  0  0  4           0  0  0
  1 11  1  0     0  0
  1 12  1  0     0  0
  2 24  2  0     0  0
  3  4  1  0     0  0
  3 13  1  0     0  0
  4 16  2  0     0  0
  5 11  1  0     0  0
  5 14  2  0     0  0
  6 11  2  0     0  0
  6 15  1  0     0  0
  7 13  1  0     0  0
  7 14  1  0     0  0
  8 15  1  0     0  0
  8 25  1  0     0  0
  8 26  1  0     0  0
  9 17  1  0     0  0
  9 24  1  0     0  0
 10 27  1  0     0  0
 10 28  1  0     0  0
 10 29  1  0     0  0
 12 18  2  0     0  0
 12 19  1  0     0  0
 13 21  2  0     0  0
 14 20  1  0     0  0
 15 20  2  0     0  0
 16 21  1  0     0  0
 16 30  1  0     0  0
 17 22  2  0     0  0
 17 23  1  0     0  0
 18 22  1  0     0  0
 19 23  2  0     0  0
 24 31  1  0     0  0
 25 27  1  0     0  0
 26 28  1  0     0  0
 31 32  1  0     0  0
 31 33  1  0     0  0
 32 33  1  0     0  0
M  END
> <standard_type>
pIC50

> <# Confs.>
25

> <canonical_smiles>
CC1=NNC(NC2=NC(SC3=CC=C(NC(C4CC4)=O)C=C3)=NC(N5CCN(C)CC5)=C2)=C1

> <standard_relation>
=

> <Publication_ID>
nan

> <predicted_activity_value>
7.886056647693163

> <actual_activity_value>
7.7447274948966935

> <Compound>
10

> <standard_units>
nM

> hash
7402733853492314349

$$$$
10_
XXILIB    08252103493D 0   0.00000     0.00000

 33 37  0     1  0            999 V2000
    1.7803   -0.0000   -0.0000 S   0  0  0  0  0  2           0  0  0
    3.0588   -2.2017    6.5169 O   0  0  0  0  0  2           0  0  0
   -0.9940    0.0227    3.9348 N   0  0  0  0  0  3           0  0  0
   -0.7593    0.0238    5.2572 N   0  0  0  0  0  3           0  0  0
   -0.6499   -0.0000    1.1793 N   0  0  0  0  0  3           0  0  0
   -0.5925    0.0264   -1.2120 N   0  0  0  0  0  3           0  0  0
   -2.7679    0.0276    2.3298 N   0  0  0  0  0  3           0  0  0
   -2.5770    0.0695   -2.4961 N   0  0  2  0  0  3           0  0  0
    2.8891    0.0372    5.8844 N   0  0  0  0  0  3           0  0  0
   -2.8893    1.9674   -4.5802 N   0  0  2  0  0  3           0  0  0
    0.0000    0.0000    0.0000 C   0  0  0  0  0  4           0  0  0
    2.0917   -0.0000    1.7457 C   0  0  0  0  0  4           0  0  0
   -2.3209    0.0325    3.6051 C   0  0  0  0  0  4           0  0  0
   -2.0016    0.0121    1.1403 C   0  0  0  0  0  4           0  0  0
   -1.9480    0.0445   -1.2661 C   0  0  0  0  0  4           0  0  0
   -1.9852    0.0405    5.7947 C   0  0  0  0  0  4           0  0  0
    2.6224   -0.0098    4.5027 C   0  0  0  0  0  4           0  0  0
    2.2162    1.2055    2.4437 C   0  0  0  0  0  4           0  0  0
    2.2390   -1.2097    2.4320 C   0  0  0  0  0  4           0  0  0
   -2.6800    0.0398   -0.0788 C   0  0  0  0  0  4           0  0  0
   -2.9954    0.0455    4.8038 C   0  0  0  0  0  4           0  0  0
    2.4780    1.2000    3.8158 C   0  0  0  0  0  4           0  0  0
    2.5012   -1.2160    3.8046 C   0  0  0  0  0  4           0  0  0
    3.0718   -1.0041    6.7782 C   0  0  0  0  0  4           0  0  0
   -3.8786    0.7089   -2.6897 C   0  0  0  0  0  4           0  0  0
   -1.7962   -0.0834   -3.7233 C   0  0  0  0  0  4           0  0  0
   -3.6572    2.0860   -3.3273 C   0  0  0  0  0  4           0  0  0
   -1.5950    1.2992   -4.3548 C   0  0  0  0  0  4           0  0  0
   -2.6904    3.2832   -5.1863 C   0  0  0  0  0  4           0  0  0
   -2.1573    0.0391    7.2644 C   0  0  0  0  0  4           0  0  0
    3.3356   -0.5516    8.1651 C   0  0  1  0  0  4           0  0  0
    2.2904    0.2623    8.8849 C   0  0  0  0  0  4           0  0  0
    2.5748   -1.1411    9.3248 C   0  0  0  0  0  4           0  0  0
  1 11  1  0     0  0
  1 12  1  0     0  0
  2 24  2  0     0  0
  3  4  1  0     0  0
  3 13  1  0     0  0
  4 16  2  0     0  0
  5 11  1  0     0  0
  5 14  2  0     0  0
  6 11  2  0     0  0
  6 15  1  0     0  0
  7 13  1  0     0  0
  7 14  1  0     0  0
  8 15  1  0     0  0
  8 25  1  0     0  0
  8 26  1  0     0  0
  9 17  1  0     0  0
  9 24  1  0     0  0
 10 27  1  0     0  0
 10 28  1  0     0  0
 10 29  1  0     0  0
 12 18  2  0     0  0
 12 19  1  0     0  0
 13 21  2  0     0  0
 14 20  1  0     0  0
 15 20  2  0     0  0
 16 21  1  0     0  0
 16 30  1  0     0  0
 17 22  2  0     0  0
 17 23  1  0     0  0
 18 22  1  0     0  0
 19 23  2  0     0  0
 24 31  1  0     0  0
 25 27  1  0     0  0
 26 28  1  0     0  0
 31 32  1  0     0  0
 31 33  1  0     0  0
 32 33  1  0     0  0
M  END
> <standard_type>
pIC50

> <# Confs.>
25

> <canonical_smiles>
CC1=NNC(NC2=NC(SC3=CC=C(NC(C4CC4)=O)C=C3)=NC(N5CCN(C)CC5)=C2)=C1

> <standard_relation>
=

> <Publication_ID>
nan

> <predicted_activity_value>
7.886056647693163

> <actual_activity_value>
7.7447274948966935

> <Compound>
10

> <standard_units>
nM

> hash
7402733853492314349

$$$$
10_
XXILIB    08252103493D 0   0.00000     0.00000

 33 37  0     1  0            999 V2000
    1.7803   -0.0000   -0.0000 S   0  0  0  0  0  2           0  0  0
    3.0588   -2.2017    6.5169 O   0  0  0  0  0  2           0  0  0
   -0.9940    0.0227    3.9348 N   0  0  0  0  0  3           0  0  0
   -0.7593    0.0238    5.2572 N   0  0  0  0  0  3           0  0  0
   -0.6499    0.0000    1.1793 N   0  0  0  0  0  3           0  0  0
   -0.5925    0.0264   -1.2120 N   0  0  0  0  0  3           0  0  0
   -2.7679    0.0276    2.3298 N   0  0  0  0  0  3           0  0  0
   -2.5770    0.0695   -2.4961 N   0  0  2  0  0  3           0  0  0
    2.8891    0.0372    5.8844 N   0  0  0  0  0  3           0  0  0
   -3.0012   -1.4851   -4.8290 N   0  0  2  0  0  3           0  0  0
    0.0000    0.0000    0.0000 C   0  0  0  0  0  4           0  0  0
    2.0917   -0.0000    1.7457 C   0  0  0  0  0  4           0  0  0
   -2.3209    0.0325    3.6051 C   0  0  0  0  0  4           0  0  0
   -2.0016    0.0121    1.1403 C   0  0  0  0  0  4           0  0  0
   -1.9480    0.0445   -1.2661 C   0  0  0  0  0  4           0  0  0
   -1.9852    0.0405    5.7947 C   0  0  0  0  0  4           0  0  0
    2.6224   -0.0098    4.5027 C   0  0  0  0  0  4           0  0  0
    2.2162    1.2055    2.4437 C   0  0  0  0  0  4           0  0  0
    2.2390   -1.2097    2.4320 C   0  0  0  0  0  4           0  0  0
   -2.6800    0.0398   -0.0788 C   0  0  0  0  0  4           0  0  0
   -2.9954    0.0455    4.8038 C   0  0  0  0  0  4           0  0  0
    2.4780    1.2000    3.8158 C   0  0  0  0  0  4           0  0  0
    2.5012   -1.2160    3.8046 C   0  0  0  0  0  4           0  0  0
    3.0718   -1.0041    6.7782 C   0  0  0  0  0  4           0  0  0
   -3.8929   -0.5244   -2.7273 C   0  0  0  0  0  4           0  0  0
   -1.8285    0.3871   -3.7112 C   0  0  0  0  0  4           0  0  0
   -3.7240   -1.7861   -3.5812 C   0  0  0  0  0  4           0  0  0
   -1.6834   -0.8891   -4.5483 C   0  0  0  0  0  4           0  0  0
   -2.8566   -2.6920   -5.6421 C   0  0  0  0  0  4           0  0  0
   -2.1573    0.0391    7.2644 C   0  0  0  0  0  4           0  0  0
    3.3356   -0.5516    8.1651 C   0  0  1  0  0  4           0  0  0
    2.2904    0.2623    8.8849 C   0  0  0  0  0  4           0  0  0
    2.5748   -1.1411    9.3248 C   0  0  0  0  0  4           0  0  0
  1 11  1  0     0  0
  1 12  1  0     0  0
  2 24  2  0     0  0
  3  4  1  0     0  0
  3 13  1  0     0  0
  4 16  2  0     0  0
  5 11  1  0     0  0
  5 14  2  0     0  0
  6 11  2  0     0  0
  6 15  1  0     0  0
  7 13  1  0     0  0
  7 14  1  0     0  0
  8 15  1  0     0  0
  8 25  1  0     0  0
  8 26  1  0     0  0
  9 17  1  0     0  0
  9 24  1  0     0  0
 10 27  1  0     0  0
 10 28  1  0     0  0
 10 29  1  0     0  0
 12 18  2  0     0  0
 12 19  1  0     0  0
 13 21  2  0     0  0
 14 20  1  0     0  0
 15 20  2  0     0  0
 16 21  1  0     0  0
 16 30  1  0     0  0
 17 22  2  0     0  0
 17 23  1  0     0  0
 18 22  1  0     0  0
 19 23  2  0     0  0
 24 31  1  0     0  0
 25 27  1  0     0  0
 26 28  1  0     0  0
 31 32  1  0     0  0
 31 33  1  0     0  0
 32 33  1  0     0  0
M  END
> <standard_type>
pIC50

> <# Confs.>
25

> <canonical_smiles>
CC1=NNC(NC2=NC(SC3=CC=C(NC(C4CC4)=O)C=C3)=NC(N5CCN(C)CC5)=C2)=C1

> <standard_relation>
=

> <Publication_ID>
nan

> <predicted_activity_value>
7.886056647693163

> <actual_activity_value>
7.7447274948966935

> <Compound>
10

> <standard_units>
nM

> hash
7402733853492314349

$$$$
10_
XXILIB    08252103493D 0   0.00000     0.00000

 33 37  0     1  0            999 V2000
    1.7803    0.0000   -0.0000 S   0  0  0  0  0  2           0  0  0
    3.0588   -6.7446    1.3517 O   0  0  0  0  0  2           0  0  0
   -0.9940    0.0227    3.9348 N   0  0  0  0  0  3           0  0  0
   -0.7593    0.0238    5.2572 N   0  0  0  0  0  3           0  0  0
   -0.6499   -0.0000    1.1793 N   0  0  0  0  0  3           0  0  0
   -0.5925    0.0264   -1.2120 N   0  0  0  0  0  3           0  0  0
   -2.7679    0.0276    2.3298 N   0  0  0  0  0  3           0  0  0
   -2.5770    0.0695   -2.4961 N   0  0  2  0  0  3           0  0  0
    2.8891   -5.0774    2.9744 N   0  0  0  0  0  3           0  0  0
   -3.7451    0.4274   -5.0722 N   0  0  2  0  0  3           0  0  0
    0.0000    0.0000    0.0000 C   0  0  0  0  0  4           0  0  0
    2.0917   -1.5118    0.8728 C   0  0  0  0  0  4           0  0  0
   -2.3209    0.0325    3.6051 C   0  0  0  0  0  4           0  0  0
   -2.0016    0.0121    1.1403 C   0  0  0  0  0  4           0  0  0
   -1.9480    0.0445   -1.2661 C   0  0  0  0  0  4           0  0  0
   -1.9852    0.0405    5.7947 C   0  0  0  0  0  4           0  0  0
    2.6224   -3.9043    2.2429 C   0  0  0  0  0  4           0  0  0
    2.2162   -1.5135    2.2658 C   0  0  0  0  0  4           0  0  0
    2.2390   -2.7110    0.1684 C   0  0  0  0  0  4           0  0  0
   -2.6800    0.0398   -0.0788 C   0  0  0  0  0  4           0  0  0
   -2.9954    0.0455    4.8038 C   0  0  0  0  0  4           0  0  0
    2.4780   -2.7046    2.9472 C   0  0  0  0  0  4           0  0  0
    2.5012   -3.9029    0.8493 C   0  0  0  0  0  4           0  0  0
    3.0718   -6.3721    2.5195 C   0  0  0  0  0  4           0  0  0
   -1.7264    0.0751   -3.6883 C   0  0  0  0  0  4           0  0  0
   -3.9018    0.6835   -2.6171 C   0  0  0  0  0  4           0  0  0
   -2.5142   -0.3584   -4.9256 C   0  0  0  0  0  4           0  0  0
   -4.6026    0.2258   -3.8982 C   0  0  0  0  0  4           0  0  0
   -4.4517    0.0463   -6.2950 C   0  0  0  0  0  4           0  0  0
   -2.1573    0.0391    7.2644 C   0  0  0  0  0  4           0  0  0
    3.3356   -7.3470    3.6048 C   0  0  1  0  0  4           0  0  0
    2.2904   -7.5634    4.6696 C   0  0  0  0  0  4           0  0  0
    2.5748   -8.6461    3.6742 C   0  0  0  0  0  4           0  0  0
  1 11  1  0     0  0
  1 12  1  0     0  0
  2 24  2  0     0  0
  3  4  1  0     0  0
  3 13  1  0     0  0
  4 16  2  0     0  0
  5 11  1  0     0  0
  5 14  2  0     0  0
  6 11  2  0     0  0
  6 15  1  0     0  0
  7 13  1  0     0  0
  7 14  1  0     0  0
  8 15  1  0     0  0
  8 25  1  0     0  0
  8 26  1  0     0  0
  9 17  1  0     0  0
  9 24  1  0     0  0
 10 27  1  0     0  0
 10 28  1  0     0  0
 10 29  1  0     0  0
 12 18  2  0     0  0
 12 19  1  0     0  0
 13 21  2  0     0  0
 14 20  1  0     0  0
 15 20  2  0     0  0
 16 21  1  0     0  0
 16 30  1  0     0  0
 17 22  2  0     0  0
 17 23  1  0     0  0
 18 22  1  0     0  0
 19 23  2  0     0  0
 24 31  1  0     0  0
 25 27  1  0     0  0
 26 28  1  0     0  0
 31 32  1  0     0  0
 31 33  1  0     0  0
 32 33  1  0     0  0
M  END
> <standard_type>
pIC50

> <# Confs.>
25

> <canonical_smiles>
CC1=NNC(NC2=NC(SC3=CC=C(NC(C4CC4)=O)C=C3)=NC(N5CCN(C)CC5)=C2)=C1

> <standard_relation>
=

> <Publication_ID>
nan

> <predicted_activity_value>
7.886056647693163

> <actual_activity_value>
7.7447274948966935

> <Compound>
10

> <standard_units>
nM

> hash
7402733853492314349

$$$$
10_
XXILIB    08252103493D 0   0.00000     0.00000

 33 37  0     1  0            999 V2000
    1.7803    0.0000   -0.0000 S   0  0  0  0  0  2           0  0  0
    3.0588   -6.7446    1.3517 O   0  0  0  0  0  2           0  0  0
   -0.9940    0.0227    3.9348 N   0  0  0  0  0  3           0  0  0
   -0.7593    0.0238    5.2572 N   0  0  0  0  0  3           0  0  0
   -0.6499   -0.0000    1.1793 N   0  0  0  0  0  3           0  0  0
   -0.5925    0.0264   -1.2120 N   0  0  0  0  0  3           0  0  0
   -2.7679    0.0276    2.3298 N   0  0  0  0  0  3           0  0  0
   -2.5770    0.0695   -2.4961 N   0  0  2  0  0  3           0  0  0
    2.8891   -5.0774    2.9744 N   0  0  0  0  0  3           0  0  0
   -3.7451    0.4274   -5.0722 N   0  0  2  0  0  3           0  0  0
    0.0000    0.0000    0.0000 C   0  0  0  0  0  4           0  0  0
    2.0917   -1.5118    0.8728 C   0  0  0  0  0  4           0  0  0
   -2.3209    0.0325    3.6051 C   0  0  0  0  0  4           0  0  0
   -2.0016    0.0121    1.1403 C   0  0  0  0  0  4           0  0  0
   -1.9480    0.0445   -1.2661 C   0  0  0  0  0  4           0  0  0
   -1.9852    0.0405    5.7947 C   0  0  0  0  0  4           0  0  0
    2.6224   -3.9043    2.2429 C   0  0  0  0  0  4           0  0  0
    2.2162   -1.5135    2.2658 C   0  0  0  0  0  4           0  0  0
    2.2390   -2.7110    0.1684 C   0  0  0  0  0  4           0  0  0
   -2.6800    0.0398   -0.0788 C   0  0  0  0  0  4           0  0  0
   -2.9954    0.0455    4.8038 C   0  0  0  0  0  4           0  0  0
    2.4780   -2.7046    2.9472 C   0  0  0  0  0  4           0  0  0
    2.5012   -3.9029    0.8493 C   0  0  0  0  0  4           0  0  0
    3.0718   -6.3721    2.5195 C   0  0  0  0  0  4           0  0  0
   -1.7264    0.0751   -3.6883 C   0  0  0  0  0  4           0  0  0
   -3.9018    0.6835   -2.6171 C   0  0  0  0  0  4           0  0  0
   -2.5142   -0.3584   -4.9256 C   0  0  0  0  0  4           0  0  0
   -4.6026    0.2258   -3.8982 C   0  0  0  0  0  4           0  0  0
   -4.4517    0.0463   -6.2950 C   0  0  0  0  0  4           0  0  0
   -2.1573    0.0391    7.2644 C   0  0  0  0  0  4           0  0  0
    3.3356   -7.3470    3.6048 C   0  0  1  0  0  4           0  0  0
    4.6427   -8.0983    3.6173 C   0  0  0  0  0  4           0  0  0
    4.3704   -7.0602    4.6623 C   0  0  0  0  0  4           0  0  0
  1 11  1  0     0  0
  1 12  1  0     0  0
  2 24  2  0     0  0
  3  4  1  0     0  0
  3 13  1  0     0  0
  4 16  2  0     0  0
  5 11  1  0     0  0
  5 14  2  0     0  0
  6 11  2  0     0  0
  6 15  1  0     0  0
  7 13  1  0     0  0
  7 14  1  0     0  0
  8 15  1  0     0  0
  8 25  1  0     0  0
  8 26  1  0     0  0
  9 17  1  0     0  0
  9 24  1  0     0  0
 10 27  1  0     0  0
 10 28  1  0     0  0
 10 29  1  0     0  0
 12 18  2  0     0  0
 12 19  1  0     0  0
 13 21  2  0     0  0
 14 20  1  0     0  0
 15 20  2  0     0  0
 16 21  1  0     0  0
 16 30  1  0     0  0
 17 22  2  0     0  0
 17 23  1  0     0  0
 18 22  1  0     0  0
 19 23  2  0     0  0
 24 31  1  0     0  0
 25 27  1  0     0  0
 26 28  1  0     0  0
 31 32  1  0     0  0
 31 33  1  0     0  0
 32 33  1  0     0  0
M  END
> <standard_type>
pIC50

> <# Confs.>
25

> <canonical_smiles>
CC1=NNC(NC2=NC(SC3=CC=C(NC(C4CC4)=O)C=C3)=NC(N5CCN(C)CC5)=C2)=C1

> <standard_relation>
=

> <Publication_ID>
nan

> <predicted_activity_value>
7.886056647693163

> <actual_activity_value>
7.7447274948966935

> <Compound>
10

> <standard_units>
nM

> hash
7402733853492314349

$$$$
10_
XXILIB    08252103493D 0   0.00000     0.00000

 33 37  0     1  0            999 V2000
    1.7803   -0.0000   -0.0000 S   0  0  0  0  0  2           0  0  0
    3.0588   -2.2017    6.5169 O   0  0  0  0  0  2           0  0  0
   -0.9940    0.0227    3.9348 N   0  0  0  0  0  3           0  0  0
   -0.7593    0.0238    5.2572 N   0  0  0  0  0  3           0  0  0
   -0.6499   -0.0000    1.1793 N   0  0  0  0  0  3           0  0  0
   -0.5925    0.0264   -1.2120 N   0  0  0  0  0  3           0  0  0
   -2.7679    0.0276    2.3298 N   0  0  0  0  0  3           0  0  0
   -2.5770    0.0695   -2.4961 N   0  0  2  0  0  3           0  0  0
    2.8891    0.0372    5.8844 N   0  0  0  0  0  3           0  0  0
   -2.8893    1.9674   -4.5802 N   0  0  2  0  0  3           0  0  0
    0.0000    0.0000    0.0000 C   0  0  0  0  0  4           0  0  0
    2.0917   -0.0000    1.7457 C   0  0  0  0  0  4           0  0  0
   -2.3209    0.0325    3.6051 C   0  0  0  0  0  4           0  0  0
   -2.0016    0.0121    1.1403 C   0  0  0  0  0  4           0  0  0
   -1.9480    0.0445   -1.2661 C   0  0  0  0  0  4           0  0  0
   -1.9852    0.0405    5.7947 C   0  0  0  0  0  4           0  0  0
    2.6224   -0.0098    4.5027 C   0  0  0  0  0  4           0  0  0
    2.2162    1.2055    2.4437 C   0  0  0  0  0  4           0  0  0
    2.2390   -1.2097    2.4320 C   0  0  0  0  0  4           0  0  0
   -2.6800    0.0398   -0.0788 C   0  0  0  0  0  4           0  0  0
   -2.9954    0.0455    4.8038 C   0  0  0  0  0  4           0  0  0
    2.4780    1.2000    3.8158 C   0  0  0  0  0  4           0  0  0
    2.5012   -1.2160    3.8046 C   0  0  0  0  0  4           0  0  0
    3.0718   -1.0041    6.7782 C   0  0  0  0  0  4           0  0  0
   -3.8786    0.7089   -2.6897 C   0  0  0  0  0  4           0  0  0
   -1.7962   -0.0834   -3.7233 C   0  0  0  0  0  4           0  0  0
   -3.6572    2.0860   -3.3273 C   0  0  0  0  0  4           0  0  0
   -1.5950    1.2992   -4.3548 C   0  0  0  0  0  4           0  0  0
   -2.6904    3.2832   -5.1863 C   0  0  0  0  0  4           0  0  0
   -2.1573    0.0391    7.2644 C   0  0  0  0  0  4           0  0  0
    3.3356   -0.5516    8.1651 C   0  0  1  0  0  4           0  0  0
    4.6427   -0.9165    8.8219 C   0  0  0  0  0  4           0  0  0
    4.3704    0.5076    8.4455 C   0  0  0  0  0  4           0  0  0
  1 11  1  0     0  0
  1 12  1  0     0  0
  2 24  2  0     0  0
  3  4  1  0     0  0
  3 13  1  0     0  0
  4 16  2  0     0  0
  5 11  1  0     0  0
  5 14  2  0     0  0
  6 11  2  0     0  0
  6 15  1  0     0  0
  7 13  1  0     0  0
  7 14  1  0     0  0
  8 15  1  0     0  0
  8 25  1  0     0  0
  8 26  1  0     0  0
  9 17  1  0     0  0
  9 24  1  0     0  0
 10 27  1  0     0  0
 10 28  1  0     0  0
 10 29  1  0     0  0
 12 18  2  0     0  0
 12 19  1  0     0  0
 13 21  2  0     0  0
 14 20  1  0     0  0
 15 20  2  0     0  0
 16 21  1  0     0  0
 16 30  1  0     0  0
 17 22  2  0     0  0
 17 23  1  0     0  0
 18 22  1  0     0  0
 19 23  2  0     0  0
 24 31  1  0     0  0
 25 27  1  0     0  0
 26 28  1  0     0  0
 31 32  1  0     0  0
 31 33  1  0     0  0
 32 33  1  0     0  0
M  END
> <standard_type>
pIC50

> <# Confs.>
25

> <canonical_smiles>
CC1=NNC(NC2=NC(SC3=CC=C(NC(C4CC4)=O)C=C3)=NC(N5CCN(C)CC5)=C2)=C1

> <standard_relation>
=

> <Publication_ID>
nan

> <predicted_activity_value>
7.886056647693163

> <actual_activity_value>
7.7447274948966935

> <Compound>
10

> <standard_units>
nM

> hash
7402733853492314349

$$$$
10_
XXILIB    08252103493D 0   0.00000     0.00000

 33 37  0     1  0            999 V2000
    1.7803   -0.0000   -0.0000 S   0  0  0  0  0  2           0  0  0
    3.0588   -2.2017    6.5169 O   0  0  0  0  0  2           0  0  0
   -0.9940    0.0227    3.9348 N   0  0  0  0  0  3           0  0  0
   -0.7593    0.0238    5.2572 N   0  0  0  0  0  3           0  0  0
   -0.6499    0.0000    1.1793 N   0  0  0  0  0  3           0  0  0
   -0.5925    0.0264   -1.2120 N   0  0  0  0  0  3           0  0  0
   -2.7679    0.0276    2.3298 N   0  0  0  0  0  3           0  0  0
   -2.5770    0.0695   -2.4961 N   0  0  2  0  0  3           0  0  0
    2.8891    0.0372    5.8844 N   0  0  0  0  0  3           0  0  0
   -3.0012   -1.4851   -4.8290 N   0  0  2  0  0  3           0  0  0
    0.0000    0.0000    0.0000 C   0  0  0  0  0  4           0  0  0
    2.0917   -0.0000    1.7457 C   0  0  0  0  0  4           0  0  0
   -2.3209    0.0325    3.6051 C   0  0  0  0  0  4           0  0  0
   -2.0016    0.0121    1.1403 C   0  0  0  0  0  4           0  0  0
   -1.9480    0.0445   -1.2661 C   0  0  0  0  0  4           0  0  0
   -1.9852    0.0405    5.7947 C   0  0  0  0  0  4           0  0  0
    2.6224   -0.0098    4.5027 C   0  0  0  0  0  4           0  0  0
    2.2162    1.2055    2.4437 C   0  0  0  0  0  4           0  0  0
    2.2390   -1.2097    2.4320 C   0  0  0  0  0  4           0  0  0
   -2.6800    0.0398   -0.0788 C   0  0  0  0  0  4           0  0  0
   -2.9954    0.0455    4.8038 C   0  0  0  0  0  4           0  0  0
    2.4780    1.2000    3.8158 C   0  0  0  0  0  4           0  0  0
    2.5012   -1.2160    3.8046 C   0  0  0  0  0  4           0  0  0
    3.0718   -1.0041    6.7782 C   0  0  0  0  0  4           0  0  0
   -3.8929   -0.5244   -2.7273 C   0  0  0  0  0  4           0  0  0
   -1.8285    0.3871   -3.7112 C   0  0  0  0  0  4           0  0  0
   -3.7240   -1.7861   -3.5812 C   0  0  0  0  0  4           0  0  0
   -1.6834   -0.8891   -4.5483 C   0  0  0  0  0  4           0  0  0
   -2.8566   -2.6920   -5.6421 C   0  0  0  0  0  4           0  0  0
   -2.1573    0.0391    7.2644 C   0  0  0  0  0  4           0  0  0
    3.3356   -0.5516    8.1651 C   0  0  1  0  0  4           0  0  0
    4.6427   -0.9165    8.8219 C   0  0  0  0  0  4           0  0  0
    4.3704    0.5076    8.4455 C   0  0  0  0  0  4           0  0  0
  1 11  1  0     0  0
  1 12  1  0     0  0
  2 24  2  0     0  0
  3  4  1  0     0  0
  3 13  1  0     0  0
  4 16  2  0     0  0
  5 11  1  0     0  0
  5 14  2  0     0  0
  6 11  2  0     0  0
  6 15  1  0     0  0
  7 13  1  0     0  0
  7 14  1  0     0  0
  8 15  1  0     0  0
  8 25  1  0     0  0
  8 26  1  0     0  0
  9 17  1  0     0  0
  9 24  1  0     0  0
 10 27  1  0     0  0
 10 28  1  0     0  0
 10 29  1  0     0  0
 12 18  2  0     0  0
 12 19  1  0     0  0
 13 21  2  0     0  0
 14 20  1  0     0  0
 15 20  2  0     0  0
 16 21  1  0     0  0
 16 30  1  0     0  0
 17 22  2  0     0  0
 17 23  1  0     0  0
 18 22  1  0     0  0
 19 23  2  0     0  0
 24 31  1  0     0  0
 25 27  1  0     0  0
 26 28  1  0     0  0
 31 32  1  0     0  0
 31 33  1  0     0  0
 32 33  1  0     0  0
M  END
> <standard_type>
pIC50

> <# Confs.>
25

> <canonical_smiles>
CC1=NNC(NC2=NC(SC3=CC=C(NC(C4CC4)=O)C=C3)=NC(N5CCN(C)CC5)=C2)=C1

> <standard_relation>
=

> <Publication_ID>
nan

> <predicted_activity_value>
7.886056647693163

> <actual_activity_value>
7.7447274948966935

> <Compound>
10

> <standard_units>
nM

> hash
7402733853492314349

$$$$
10_
XXILIB    08252103493D 0   0.00000     0.00000

 33 37  0     1  0            999 V2000
    1.7803    0.0000   -0.0000 S   0  0  0  0  0  2           0  0  0
    3.0588   -6.7446    1.3517 O   0  0  0  0  0  2           0  0  0
   -0.9940    0.0227    3.9348 N   0  0  0  0  0  3           0  0  0
   -0.7593    0.0238    5.2572 N   0  0  0  0  0  3           0  0  0
   -0.6499   -0.0000    1.1793 N   0  0  0  0  0  3           0  0  0
   -0.5925    0.0264   -1.2120 N   0  0  0  0  0  3           0  0  0
   -2.7679    0.0276    2.3298 N   0  0  0  0  0  3           0  0  0
   -2.5770    0.0695   -2.4961 N   0  0  2  0  0  3           0  0  0
    2.8891   -5.0774    2.9744 N   0  0  0  0  0  3           0  0  0
   -2.8893    1.9674   -4.5802 N   0  0  2  0  0  3           0  0  0
    0.0000    0.0000    0.0000 C   0  0  0  0  0  4           0  0  0
    2.0917   -1.5118    0.8728 C   0  0  0  0  0  4           0  0  0
   -2.3209    0.0325    3.6051 C   0  0  0  0  0  4           0  0  0
   -2.0016    0.0121    1.1403 C   0  0  0  0  0  4           0  0  0
   -1.9480    0.0445   -1.2661 C   0  0  0  0  0  4           0  0  0
   -1.9852    0.0405    5.7947 C   0  0  0  0  0  4           0  0  0
    2.6224   -3.9043    2.2429 C   0  0  0  0  0  4           0  0  0
    2.2162   -1.5135    2.2658 C   0  0  0  0  0  4           0  0  0
    2.2390   -2.7110    0.1684 C   0  0  0  0  0  4           0  0  0
   -2.6800    0.0398   -0.0788 C   0  0  0  0  0  4           0  0  0
   -2.9954    0.0455    4.8038 C   0  0  0  0  0  4           0  0  0
    2.4780   -2.7046    2.9472 C   0  0  0  0  0  4           0  0  0
    2.5012   -3.9029    0.8493 C   0  0  0  0  0  4           0  0  0
    3.0718   -6.3721    2.5195 C   0  0  0  0  0  4           0  0  0
   -3.8786    0.7089   -2.6897 C   0  0  0  0  0  4           0  0  0
   -1.7962   -0.0834   -3.7233 C   0  0  0  0  0  4           0  0  0
   -3.6572    2.0860   -3.3273 C   0  0  0  0  0  4           0  0  0
   -1.5950    1.2992   -4.3548 C   0  0  0  0  0  4           0  0  0
   -2.6904    3.2832   -5.1863 C   0  0  0  0  0  4           0  0  0
   -2.1573    0.0391    7.2644 C   0  0  0  0  0  4           0  0  0
    3.3356   -7.3470    3.6048 C   0  0  1  0  0  4           0  0  0
    2.2904   -7.5634    4.6696 C   0  0  0  0  0  4           0  0  0
    2.5748   -8.6461    3.6742 C   0  0  0  0  0  4           0  0  0
  1 11  1  0     0  0
  1 12  1  0     0  0
  2 24  2  0     0  0
  3  4  1  0     0  0
  3 13  1  0     0  0
  4 16  2  0     0  0
  5 11  1  0     0  0
  5 14  2  0     0  0
  6 11  2  0     0  0
  6 15  1  0     0  0
  7 13  1  0     0  0
  7 14  1  0     0  0
  8 15  1  0     0  0
  8 25  1  0     0  0
  8 26  1  0     0  0
  9 17  1  0     0  0
  9 24  1  0     0  0
 10 27  1  0     0  0
 10 28  1  0     0  0
 10 29  1  0     0  0
 12 18  2  0     0  0
 12 19  1  0     0  0
 13 21  2  0     0  0
 14 20  1  0     0  0
 15 20  2  0     0  0
 16 21  1  0     0  0
 16 30  1  0     0  0
 17 22  2  0     0  0
 17 23  1  0     0  0
 18 22  1  0     0  0
 19 23  2  0     0  0
 24 31  1  0     0  0
 25 27  1  0     0  0
 26 28  1  0     0  0
 31 32  1  0     0  0
 31 33  1  0     0  0
 32 33  1  0     0  0
M  END
> <standard_type>
pIC50

> <# Confs.>
25

> <canonical_smiles>
CC1=NNC(NC2=NC(SC3=CC=C(NC(C4CC4)=O)C=C3)=NC(N5CCN(C)CC5)=C2)=C1

> <standard_relation>
=

> <Publication_ID>
nan

> <predicted_activity_value>
7.886056647693163

> <actual_activity_value>
7.7447274948966935

> <Compound>
10

> <standard_units>
nM

> hash
7402733853492314349

$$$$
10_
XXILIB    08252103493D 0   0.00000     0.00000

 33 37  0     1  0            999 V2000
    1.7803    0.0000   -0.0000 S   0  0  0  0  0  2           0  0  0
    3.0588   -6.7446    1.3517 O   0  0  0  0  0  2           0  0  0
   -0.9940    0.0227    3.9348 N   0  0  0  0  0  3           0  0  0
   -0.7593    0.0238    5.2572 N   0  0  0  0  0  3           0  0  0
   -0.6499    0.0000    1.1793 N   0  0  0  0  0  3           0  0  0
   -0.5925    0.0264   -1.2120 N   0  0  0  0  0  3           0  0  0
   -2.7679    0.0276    2.3298 N   0  0  0  0  0  3           0  0  0
   -2.5770    0.0695   -2.4961 N   0  0  2  0  0  3           0  0  0
    2.8891   -5.0774    2.9744 N   0  0  0  0  0  3           0  0  0
   -3.0012   -1.4851   -4.8290 N   0  0  2  0  0  3           0  0  0
    0.0000    0.0000    0.0000 C   0  0  0  0  0  4           0  0  0
    2.0917   -1.5118    0.8728 C   0  0  0  0  0  4           0  0  0
   -2.3209    0.0325    3.6051 C   0  0  0  0  0  4           0  0  0
   -2.0016    0.0121    1.1403 C   0  0  0  0  0  4           0  0  0
   -1.9480    0.0445   -1.2661 C   0  0  0  0  0  4           0  0  0
   -1.9852    0.0405    5.7947 C   0  0  0  0  0  4           0  0  0
    2.6224   -3.9043    2.2429 C   0  0  0  0  0  4           0  0  0
    2.2162   -1.5135    2.2658 C   0  0  0  0  0  4           0  0  0
    2.2390   -2.7110    0.1684 C   0  0  0  0  0  4           0  0  0
   -2.6800    0.0398   -0.0788 C   0  0  0  0  0  4           0  0  0
   -2.9954    0.0455    4.8038 C   0  0  0  0  0  4           0  0  0
    2.4780   -2.7046    2.9472 C   0  0  0  0  0  4           0  0  0
    2.5012   -3.9029    0.8493 C   0  0  0  0  0  4           0  0  0
    3.0718   -6.3721    2.5195 C   0  0  0  0  0  4           0  0  0
   -3.8929   -0.5244   -2.7273 C   0  0  0  0  0  4           0  0  0
   -1.8285    0.3871   -3.7112 C   0  0  0  0  0  4           0  0  0
   -3.7240   -1.7861   -3.5812 C   0  0  0  0  0  4           0  0  0
   -1.6834   -0.8891   -4.5483 C   0  0  0  0  0  4           0  0  0
   -2.8566   -2.6920   -5.6421 C   0  0  0  0  0  4           0  0  0
   -2.1573    0.0391    7.2644 C   0  0  0  0  0  4           0  0  0
    3.3356   -7.3470    3.6048 C   0  0  1  0  0  4           0  0  0
    2.2904   -7.5634    4.6696 C   0  0  0  0  0  4           0  0  0
    2.5748   -8.6461    3.6742 C   0  0  0  0  0  4           0  0  0
  1 11  1  0     0  0
  1 12  1  0     0  0
  2 24  2  0     0  0
  3  4  1  0     0  0
  3 13  1  0     0  0
  4 16  2  0     0  0
  5 11  1  0     0  0
  5 14  2  0     0  0
  6 11  2  0     0  0
  6 15  1  0     0  0
  7 13  1  0     0  0
  7 14  1  0     0  0
  8 15  1  0     0  0
  8 25  1  0     0  0
  8 26  1  0     0  0
  9 17  1  0     0  0
  9 24  1  0     0  0
 10 27  1  0     0  0
 10 28  1  0     0  0
 10 29  1  0     0  0
 12 18  2  0     0  0
 12 19  1  0     0  0
 13 21  2  0     0  0
 14 20  1  0     0  0
 15 20  2  0     0  0
 16 21  1  0     0  0
 16 30  1  0     0  0
 17 22  2  0     0  0
 17 23  1  0     0  0
 18 22  1  0     0  0
 19 23  2  0     0  0
 24 31  1  0     0  0
 25 27  1  0     0  0
 26 28  1  0     0  0
 31 32  1  0     0  0
 31 33  1  0     0  0
 32 33  1  0     0  0
M  END
> <standard_type>
pIC50

> <# Confs.>
25

> <canonical_smiles>
CC1=NNC(NC2=NC(SC3=CC=C(NC(C4CC4)=O)C=C3)=NC(N5CCN(C)CC5)=C2)=C1

> <standard_relation>
=

> <Publication_ID>
nan

> <predicted_activity_value>
7.886056647693163

> <actual_activity_value>
7.7447274948966935

> <Compound>
10

> <standard_units>
nM

> hash
7402733853492314349

$$$$
10_
XXILIB    08252103493D 0   0.00000     0.00000

 33 37  0     1  0            999 V2000
    1.7803    0.0000   -0.0000 S   0  0  0  0  0  2           0  0  0
    3.0588   -6.7446    1.3517 O   0  0  0  0  0  2           0  0  0
   -0.9940    0.0227    3.9348 N   0  0  0  0  0  3           0  0  0
   -0.7593    0.0238    5.2572 N   0  0  0  0  0  3           0  0  0
   -0.6499   -0.0000    1.1793 N   0  0  0  0  0  3           0  0  0
   -0.5925    0.0264   -1.2120 N   0  0  0  0  0  3           0  0  0
   -2.7679    0.0276    2.3298 N   0  0  0  0  0  3           0  0  0
   -2.5770    0.0695   -2.4961 N   0  0  2  0  0  3           0  0  0
    2.8891   -5.0774    2.9744 N   0  0  0  0  0  3           0  0  0
   -2.8893    1.9674   -4.5802 N   0  0  2  0  0  3           0  0  0
    0.0000    0.0000    0.0000 C   0  0  0  0  0  4           0  0  0
    2.0917   -1.5118    0.8728 C   0  0  0  0  0  4           0  0  0
   -2.3209    0.0325    3.6051 C   0  0  0  0  0  4           0  0  0
   -2.0016    0.0121    1.1403 C   0  0  0  0  0  4           0  0  0
   -1.9480    0.0445   -1.2661 C   0  0  0  0  0  4           0  0  0
   -1.9852    0.0405    5.7947 C   0  0  0  0  0  4           0  0  0
    2.6224   -3.9043    2.2429 C   0  0  0  0  0  4           0  0  0
    2.2162   -1.5135    2.2658 C   0  0  0  0  0  4           0  0  0
    2.2390   -2.7110    0.1684 C   0  0  0  0  0  4           0  0  0
   -2.6800    0.0398   -0.0788 C   0  0  0  0  0  4           0  0  0
   -2.9954    0.0455    4.8038 C   0  0  0  0  0  4           0  0  0
    2.4780   -2.7046    2.9472 C   0  0  0  0  0  4           0  0  0
    2.5012   -3.9029    0.8493 C   0  0  0  0  0  4           0  0  0
    3.0718   -6.3721    2.5195 C   0  0  0  0  0  4           0  0  0
   -3.8786    0.7089   -2.6897 C   0  0  0  0  0  4           0  0  0
   -1.7962   -0.0834   -3.7233 C   0  0  0  0  0  4           0  0  0
   -3.6572    2.0860   -3.3273 C   0  0  0  0  0  4           0  0  0
   -1.5950    1.2992   -4.3548 C   0  0  0  0  0  4           0  0  0
   -2.6904    3.2832   -5.1863 C   0  0  0  0  0  4           0  0  0
   -2.1573    0.0391    7.2644 C   0  0  0  0  0  4           0  0  0
    3.3356   -7.3470    3.6048 C   0  0  1  0  0  4           0  0  0
    4.6427   -8.0983    3.6173 C   0  0  0  0  0  4           0  0  0
    4.3704   -7.0602    4.6623 C   0  0  0  0  0  4           0  0  0
  1 11  1  0     0  0
  1 12  1  0     0  0
  2 24  2  0     0  0
  3  4  1  0     0  0
  3 13  1  0     0  0
  4 16  2  0     0  0
  5 11  1  0     0  0
  5 14  2  0     0  0
  6 11  2  0     0  0
  6 15  1  0     0  0
  7 13  1  0     0  0
  7 14  1  0     0  0
  8 15  1  0     0  0
  8 25  1  0     0  0
  8 26  1  0     0  0
  9 17  1  0     0  0
  9 24  1  0     0  0
 10 27  1  0     0  0
 10 28  1  0     0  0
 10 29  1  0     0  0
 12 18  2  0     0  0
 12 19  1  0     0  0
 13 21  2  0     0  0
 14 20  1  0     0  0
 15 20  2  0     0  0
 16 21  1  0     0  0
 16 30  1  0     0  0
 17 22  2  0     0  0
 17 23  1  0     0  0
 18 22  1  0     0  0
 19 23  2  0     0  0
 24 31  1  0     0  0
 25 27  1  0     0  0
 26 28  1  0     0  0
 31 32  1  0     0  0
 31 33  1  0     0  0
 32 33  1  0     0  0
M  END
> <standard_type>
pIC50

> <# Confs.>
25

> <canonical_smiles>
CC1=NNC(NC2=NC(SC3=CC=C(NC(C4CC4)=O)C=C3)=NC(N5CCN(C)CC5)=C2)=C1

> <standard_relation>
=

> <Publication_ID>
nan

> <predicted_activity_value>
7.886056647693163

> <actual_activity_value>
7.7447274948966935

> <Compound>
10

> <standard_units>
nM

> hash
7402733853492314349

$$$$
10_
XXILIB    08252103493D 0   0.00000     0.00000

 33 37  0     1  0            999 V2000
    1.7803    0.0000   -0.0000 S   0  0  0  0  0  2           0  0  0
    3.0588   -6.7446    1.3517 O   0  0  0  0  0  2           0  0  0
   -0.9940    0.0227    3.9348 N   0  0  0  0  0  3           0  0  0
   -0.7593    0.0238    5.2572 N   0  0  0  0  0  3           0  0  0
   -0.6499    0.0000    1.1793 N   0  0  0  0  0  3           0  0  0
   -0.5925    0.0264   -1.2120 N   0  0  0  0  0  3           0  0  0
   -2.7679    0.0276    2.3298 N   0  0  0  0  0  3           0  0  0
   -2.5770    0.0695   -2.4961 N   0  0  2  0  0  3           0  0  0
    2.8891   -5.0774    2.9744 N   0  0  0  0  0  3           0  0  0
   -3.0012   -1.4851   -4.8290 N   0  0  2  0  0  3           0  0  0
    0.0000    0.0000    0.0000 C   0  0  0  0  0  4           0  0  0
    2.0917   -1.5118    0.8728 C   0  0  0  0  0  4           0  0  0
   -2.3209    0.0325    3.6051 C   0  0  0  0  0  4           0  0  0
   -2.0016    0.0121    1.1403 C   0  0  0  0  0  4           0  0  0
   -1.9480    0.0445   -1.2661 C   0  0  0  0  0  4           0  0  0
   -1.9852    0.0405    5.7947 C   0  0  0  0  0  4           0  0  0
    2.6224   -3.9043    2.2429 C   0  0  0  0  0  4           0  0  0
    2.2162   -1.5135    2.2658 C   0  0  0  0  0  4           0  0  0
    2.2390   -2.7110    0.1684 C   0  0  0  0  0  4           0  0  0
   -2.6800    0.0398   -0.0788 C   0  0  0  0  0  4           0  0  0
   -2.9954    0.0455    4.8038 C   0  0  0  0  0  4           0  0  0
    2.4780   -2.7046    2.9472 C   0  0  0  0  0  4           0  0  0
    2.5012   -3.9029    0.8493 C   0  0  0  0  0  4           0  0  0
    3.0718   -6.3721    2.5195 C   0  0  0  0  0  4           0  0  0
   -3.8929   -0.5244   -2.7273 C   0  0  0  0  0  4           0  0  0
   -1.8285    0.3871   -3.7112 C   0  0  0  0  0  4           0  0  0
   -3.7240   -1.7861   -3.5812 C   0  0  0  0  0  4           0  0  0
   -1.6834   -0.8891   -4.5483 C   0  0  0  0  0  4           0  0  0
   -2.8566   -2.6920   -5.6421 C   0  0  0  0  0  4           0  0  0
   -2.1573    0.0391    7.2644 C   0  0  0  0  0  4           0  0  0
    3.3356   -7.3470    3.6048 C   0  0  1  0  0  4           0  0  0
    4.6427   -8.0983    3.6173 C   0  0  0  0  0  4           0  0  0
    4.3704   -7.0602    4.6623 C   0  0  0  0  0  4           0  0  0
  1 11  1  0     0  0
  1 12  1  0     0  0
  2 24  2  0     0  0
  3  4  1  0     0  0
  3 13  1  0     0  0
  4 16  2  0     0  0
  5 11  1  0     0  0
  5 14  2  0     0  0
  6 11  2  0     0  0
  6 15  1  0     0  0
  7 13  1  0     0  0
  7 14  1  0     0  0
  8 15  1  0     0  0
  8 25  1  0     0  0
  8 26  1  0     0  0
  9 17  1  0     0  0
  9 24  1  0     0  0
 10 27  1  0     0  0
 10 28  1  0     0  0
 10 29  1  0     0  0
 12 18  2  0     0  0
 12 19  1  0     0  0
 13 21  2  0     0  0
 14 20  1  0     0  0
 15 20  2  0     0  0
 16 21  1  0     0  0
 16 30  1  0     0  0
 17 22  2  0     0  0
 17 23  1  0     0  0
 18 22  1  0     0  0
 19 23  2  0     0  0
 24 31  1  0     0  0
 25 27  1  0     0  0
 26 28  1  0     0  0
 31 32  1  0     0  0
 31 33  1  0     0  0
 32 33  1  0     0  0
M  END
> <standard_type>
pIC50

> <# Confs.>
25

> <canonical_smiles>
CC1=NNC(NC2=NC(SC3=CC=C(NC(C4CC4)=O)C=C3)=NC(N5CCN(C)CC5)=C2)=C1

> <standard_relation>
=

> <Publication_ID>
nan

> <predicted_activity_value>
7.886056647693163

> <actual_activity_value>
7.7447274948966935

> <Compound>
10

> <standard_units>
nM

> hash
7402733853492314349

$$$$
10_
XXILIB    08252103493D 0   0.00000     0.00000

 33 37  0     1  0            999 V2000
    1.7803   -0.0000   -0.0000 S   0  0  0  0  0  2           0  0  0
    4.1274    1.5614    6.4035 O   0  0  0  0  0  2           0  0  0
   -0.9940    0.0227    3.9348 N   0  0  0  0  0  3           0  0  0
   -0.7593    0.0238    5.2572 N   0  0  0  0  0  3           0  0  0
   -0.6499   -0.0000    1.1793 N   0  0  0  0  0  3           0  0  0
   -0.5925    0.0264   -1.2120 N   0  0  0  0  0  3           0  0  0
   -2.7679    0.0276    2.3298 N   0  0  0  0  0  3           0  0  0
   -2.5770    0.0695   -2.4961 N   0  0  2  0  0  3           0  0  0
    2.8630    2.9977    5.0694 N   0  0  0  0  0  3           0  0  0
   -3.7451    0.4274   -5.0722 N   0  0  2  0  0  3           0  0  0
    0.0000    0.0000    0.0000 C   0  0  0  0  0  4           0  0  0
    2.0917    0.8728    1.5118 C   0  0  0  0  0  4           0  0  0
   -2.3209    0.0325    3.6051 C   0  0  0  0  0  4           0  0  0
   -2.0016    0.0121    1.1403 C   0  0  0  0  0  4           0  0  0
   -1.9480    0.0445   -1.2661 C   0  0  0  0  0  4           0  0  0
   -1.9852    0.0405    5.7947 C   0  0  0  0  0  4           0  0  0
    2.6221    2.2606    3.8941 C   0  0  0  0  0  4           0  0  0
    1.6228    2.1789    1.6859 C   0  0  0  0  0  4           0  0  0
    2.8312    0.2665    2.5323 C   0  0  0  0  0  4           0  0  0
   -2.6800    0.0398   -0.0788 C   0  0  0  0  0  4           0  0  0
   -2.9954    0.0455    4.8038 C   0  0  0  0  0  4           0  0  0
    1.8851    2.8681    2.8723 C   0  0  0  0  0  4           0  0  0
    3.0943    0.9555    3.7194 C   0  0  0  0  0  4           0  0  0
    3.5553    2.6281    6.2098 C   0  0  0  0  0  4           0  0  0
   -1.7264    0.0751   -3.6883 C   0  0  0  0  0  4           0  0  0
   -3.9018    0.6835   -2.6171 C   0  0  0  0  0  4           0  0  0
   -2.5142   -0.3584   -4.9256 C   0  0  0  0  0  4           0  0  0
   -4.6026    0.2258   -3.8982 C   0  0  0  0  0  4           0  0  0
   -4.4517    0.0463   -6.2950 C   0  0  0  0  0  4           0  0  0
   -2.1573    0.0391    7.2644 C   0  0  0  0  0  4           0  0  0
    3.5943    3.6880    7.2457 C   0  0  1  0  0  4           0  0  0
    2.3008    4.1801    7.8438 C   0  0  0  0  0  4           0  0  0
    3.2493    3.3762    8.6792 C   0  0  0  0  0  4           0  0  0
  1 11  1  0     0  0
  1 12  1  0     0  0
  2 24  2  0     0  0
  3  4  1  0     0  0
  3 13  1  0     0  0
  4 16  2  0     0  0
  5 11  1  0     0  0
  5 14  2  0     0  0
  6 11  2  0     0  0
  6 15  1  0     0  0
  7 13  1  0     0  0
  7 14  1  0     0  0
  8 15  1  0     0  0
  8 25  1  0     0  0
  8 26  1  0     0  0
  9 17  1  0     0  0
  9 24  1  0     0  0
 10 27  1  0     0  0
 10 28  1  0     0  0
 10 29  1  0     0  0
 12 18  2  0     0  0
 12 19  1  0     0  0
 13 21  2  0     0  0
 14 20  1  0     0  0
 15 20  2  0     0  0
 16 21  1  0     0  0
 16 30  1  0     0  0
 17 22  2  0     0  0
 17 23  1  0     0  0
 18 22  1  0     0  0
 19 23  2  0     0  0
 24 31  1  0     0  0
 25 27  1  0     0  0
 26 28  1  0     0  0
 31 32  1  0     0  0
 31 33  1  0     0  0
 32 33  1  0     0  0
M  END
> <standard_type>
pIC50

> <# Confs.>
25

> <canonical_smiles>
CC1=NNC(NC2=NC(SC3=CC=C(NC(C4CC4)=O)C=C3)=NC(N5CCN(C)CC5)=C2)=C1

> <standard_relation>
=

> <Publication_ID>
nan

> <predicted_activity_value>
7.886056647693163

> <actual_activity_value>
7.7447274948966935

> <Compound>
10

> <standard_units>
nM

> hash
7402733853492314349

$$$$
10_
XXILIB    08252103493D 0   0.00000     0.00000

 33 37  0     1  0            999 V2000
    1.7803   -0.0000   -0.0000 S   0  0  0  0  0  2           0  0  0
    1.9600    5.0572   -4.8316 O   0  0  0  0  0  2           0  0  0
   -0.9940    0.0227    3.9348 N   0  0  0  0  0  3           0  0  0
   -0.7593    0.0238    5.2572 N   0  0  0  0  0  3           0  0  0
   -0.6499   -0.0000    1.1793 N   0  0  0  0  0  3           0  0  0
   -0.5925    0.0264   -1.2120 N   0  0  0  0  0  3           0  0  0
   -2.7679    0.0276    2.3298 N   0  0  0  0  0  3           0  0  0
   -2.5770    0.0695   -2.4961 N   0  0  2  0  0  3           0  0  0
    2.8997    2.9386   -5.0960 N   0  0  0  0  0  3           0  0  0
   -2.8893    1.9674   -4.5802 N   0  0  2  0  0  3           0  0  0
    0.0000    0.0000    0.0000 C   0  0  0  0  0  4           0  0  0
    2.0917    0.8728   -1.5118 C   0  0  0  0  0  4           0  0  0
   -2.3209    0.0325    3.6051 C   0  0  0  0  0  4           0  0  0
   -2.0016    0.0121    1.1403 C   0  0  0  0  0  4           0  0  0
   -1.9480    0.0445   -1.2661 C   0  0  0  0  0  4           0  0  0
   -1.9852    0.0405    5.7947 C   0  0  0  0  0  4           0  0  0
    2.6125    2.2762   -3.8871 C   0  0  0  0  0  4           0  0  0
    2.8095    0.2648   -2.5466 C   0  0  0  0  0  4           0  0  0
    1.6403    2.1873   -1.6687 C   0  0  0  0  0  4           0  0  0
   -2.6800    0.0398   -0.0788 C   0  0  0  0  0  4           0  0  0
   -2.9954    0.0455    4.8038 C   0  0  0  0  0  4           0  0  0
    3.0665    0.9627   -3.7291 C   0  0  0  0  0  4           0  0  0
    1.8972    2.8862   -2.8512 C   0  0  0  0  0  4           0  0  0
    2.5668    4.2223   -5.4930 C   0  0  0  0  0  4           0  0  0
   -3.8786    0.7089   -2.6897 C   0  0  0  0  0  4           0  0  0
   -1.7962   -0.0834   -3.7233 C   0  0  0  0  0  4           0  0  0
   -3.6572    2.0860   -3.3273 C   0  0  0  0  0  4           0  0  0
   -1.5950    1.2992   -4.3548 C   0  0  0  0  0  4           0  0  0
   -2.6904    3.2832   -5.1863 C   0  0  0  0  0  4           0  0  0
   -2.1573    0.0391    7.2644 C   0  0  0  0  0  4           0  0  0
    3.0512    4.5638   -6.8519 C   0  0  1  0  0  4           0  0  0
    2.5590    3.7637   -8.0311 C   0  0  0  0  0  4           0  0  0
    2.1260    5.1880   -7.8646 C   0  0  0  0  0  4           0  0  0
  1 11  1  0     0  0
  1 12  1  0     0  0
  2 24  2  0     0  0
  3  4  1  0     0  0
  3 13  1  0     0  0
  4 16  2  0     0  0
  5 11  1  0     0  0
  5 14  2  0     0  0
  6 11  2  0     0  0
  6 15  1  0     0  0
  7 13  1  0     0  0
  7 14  1  0     0  0
  8 15  1  0     0  0
  8 25  1  0     0  0
  8 26  1  0     0  0
  9 17  1  0     0  0
  9 24  1  0     0  0
 10 27  1  0     0  0
 10 28  1  0     0  0
 10 29  1  0     0  0
 12 18  2  0     0  0
 12 19  1  0     0  0
 13 21  2  0     0  0
 14 20  1  0     0  0
 15 20  2  0     0  0
 16 21  1  0     0  0
 16 30  1  0     0  0
 17 22  2  0     0  0
 17 23  1  0     0  0
 18 22  1  0     0  0
 19 23  2  0     0  0
 24 31  1  0     0  0
 25 27  1  0     0  0
 26 28  1  0     0  0
 31 32  1  0     0  0
 31 33  1  0     0  0
 32 33  1  0     0  0
M  END
> <standard_type>
pIC50

> <# Confs.>
25

> <canonical_smiles>
CC1=NNC(NC2=NC(SC3=CC=C(NC(C4CC4)=O)C=C3)=NC(N5CCN(C)CC5)=C2)=C1

> <standard_relation>
=

> <Publication_ID>
nan

> <predicted_activity_value>
7.886056647693163

> <actual_activity_value>
7.7447274948966935

> <Compound>
10

> <standard_units>
nM

> hash
7402733853492314349

$$$$
10_
XXILIB    08252103493D 0   0.00000     0.00000

 33 37  0     1  0            999 V2000
    1.7803   -0.0000   -0.0000 S   0  0  0  0  0  2           0  0  0
    4.1274    1.5614    6.4035 O   0  0  0  0  0  2           0  0  0
   -0.9940    0.0227    3.9348 N   0  0  0  0  0  3           0  0  0
   -0.7593    0.0238    5.2572 N   0  0  0  0  0  3           0  0  0
   -0.6499   -0.0000    1.1793 N   0  0  0  0  0  3           0  0  0
   -0.5925    0.0264   -1.2120 N   0  0  0  0  0  3           0  0  0
   -2.7679    0.0276    2.3298 N   0  0  0  0  0  3           0  0  0
   -2.5770    0.0695   -2.4961 N   0  0  2  0  0  3           0  0  0
    2.8630    2.9977    5.0694 N   0  0  0  0  0  3           0  0  0
   -3.7451    0.4274   -5.0722 N   0  0  2  0  0  3           0  0  0
    0.0000    0.0000    0.0000 C   0  0  0  0  0  4           0  0  0
    2.0917    0.8728    1.5118 C   0  0  0  0  0  4           0  0  0
   -2.3209    0.0325    3.6051 C   0  0  0  0  0  4           0  0  0
   -2.0016    0.0121    1.1403 C   0  0  0  0  0  4           0  0  0
   -1.9480    0.0445   -1.2661 C   0  0  0  0  0  4           0  0  0
   -1.9852    0.0405    5.7947 C   0  0  0  0  0  4           0  0  0
    2.6221    2.2606    3.8941 C   0  0  0  0  0  4           0  0  0
    1.6228    2.1789    1.6859 C   0  0  0  0  0  4           0  0  0
    2.8312    0.2665    2.5323 C   0  0  0  0  0  4           0  0  0
   -2.6800    0.0398   -0.0788 C   0  0  0  0  0  4           0  0  0
   -2.9954    0.0455    4.8038 C   0  0  0  0  0  4           0  0  0
    1.8851    2.8681    2.8723 C   0  0  0  0  0  4           0  0  0
    3.0943    0.9555    3.7194 C   0  0  0  0  0  4           0  0  0
    3.5553    2.6281    6.2098 C   0  0  0  0  0  4           0  0  0
   -1.7264    0.0751   -3.6883 C   0  0  0  0  0  4           0  0  0
   -3.9018    0.6835   -2.6171 C   0  0  0  0  0  4           0  0  0
   -2.5142   -0.3584   -4.9256 C   0  0  0  0  0  4           0  0  0
   -4.6026    0.2258   -3.8982 C   0  0  0  0  0  4           0  0  0
   -4.4517    0.0463   -6.2950 C   0  0  0  0  0  4           0  0  0
   -2.1573    0.0391    7.2644 C   0  0  0  0  0  4           0  0  0
    3.5943    3.6880    7.2457 C   0  0  1  0  0  4           0  0  0
    4.9265    4.2478    7.6758 C   0  0  0  0  0  4           0  0  0
    3.9798    5.1002    6.8878 C   0  0  0  0  0  4           0  0  0
  1 11  1  0     0  0
  1 12  1  0     0  0
  2 24  2  0     0  0
  3  4  1  0     0  0
  3 13  1  0     0  0
  4 16  2  0     0  0
  5 11  1  0     0  0
  5 14  2  0     0  0
  6 11  2  0     0  0
  6 15  1  0     0  0
  7 13  1  0     0  0
  7 14  1  0     0  0
  8 15  1  0     0  0
  8 25  1  0     0  0
  8 26  1  0     0  0
  9 17  1  0     0  0
  9 24  1  0     0  0
 10 27  1  0     0  0
 10 28  1  0     0  0
 10 29  1  0     0  0
 12 18  2  0     0  0
 12 19  1  0     0  0
 13 21  2  0     0  0
 14 20  1  0     0  0
 15 20  2  0     0  0
 16 21  1  0     0  0
 16 30  1  0     0  0
 17 22  2  0     0  0
 17 23  1  0     0  0
 18 22  1  0     0  0
 19 23  2  0     0  0
 24 31  1  0     0  0
 25 27  1  0     0  0
 26 28  1  0     0  0
 31 32  1  0     0  0
 31 33  1  0     0  0
 32 33  1  0     0  0
M  END
> <standard_type>
pIC50

> <# Confs.>
25

> <canonical_smiles>
CC1=NNC(NC2=NC(SC3=CC=C(NC(C4CC4)=O)C=C3)=NC(N5CCN(C)CC5)=C2)=C1

> <standard_relation>
=

> <Publication_ID>
nan

> <predicted_activity_value>
7.886056647693163

> <actual_activity_value>
7.7447274948966935

> <Compound>
10

> <standard_units>
nM

> hash
7402733853492314349

$$$$
10_
XXILIB    08252103493D 0   0.00000     0.00000

 33 37  0     1  0            999 V2000
    1.7803   -0.0000   -0.0000 S   0  0  0  0  0  2           0  0  0
    1.9600    5.0572   -4.8316 O   0  0  0  0  0  2           0  0  0
   -0.9940    0.0227    3.9348 N   0  0  0  0  0  3           0  0  0
   -0.7593    0.0238    5.2572 N   0  0  0  0  0  3           0  0  0
   -0.6499   -0.0000    1.1793 N   0  0  0  0  0  3           0  0  0
   -0.5925    0.0264   -1.2120 N   0  0  0  0  0  3           0  0  0
   -2.7679    0.0276    2.3298 N   0  0  0  0  0  3           0  0  0
   -2.5770    0.0695   -2.4961 N   0  0  2  0  0  3           0  0  0
    2.8997    2.9386   -5.0960 N   0  0  0  0  0  3           0  0  0
   -2.8893    1.9674   -4.5802 N   0  0  2  0  0  3           0  0  0
    0.0000    0.0000    0.0000 C   0  0  0  0  0  4           0  0  0
    2.0917    0.8728   -1.5118 C   0  0  0  0  0  4           0  0  0
   -2.3209    0.0325    3.6051 C   0  0  0  0  0  4           0  0  0
   -2.0016    0.0121    1.1403 C   0  0  0  0  0  4           0  0  0
   -1.9480    0.0445   -1.2661 C   0  0  0  0  0  4           0  0  0
   -1.9852    0.0405    5.7947 C   0  0  0  0  0  4           0  0  0
    2.6125    2.2762   -3.8871 C   0  0  0  0  0  4           0  0  0
    2.8095    0.2648   -2.5466 C   0  0  0  0  0  4           0  0  0
    1.6403    2.1873   -1.6687 C   0  0  0  0  0  4           0  0  0
   -2.6800    0.0398   -0.0788 C   0  0  0  0  0  4           0  0  0
   -2.9954    0.0455    4.8038 C   0  0  0  0  0  4           0  0  0
    3.0665    0.9627   -3.7291 C   0  0  0  0  0  4           0  0  0
    1.8972    2.8862   -2.8512 C   0  0  0  0  0  4           0  0  0
    2.5668    4.2223   -5.4930 C   0  0  0  0  0  4           0  0  0
   -3.8786    0.7089   -2.6897 C   0  0  0  0  0  4           0  0  0
   -1.7962   -0.0834   -3.7233 C   0  0  0  0  0  4           0  0  0
   -3.6572    2.0860   -3.3273 C   0  0  0  0  0  4           0  0  0
   -1.5950    1.2992   -4.3548 C   0  0  0  0  0  4           0  0  0
   -2.6904    3.2832   -5.1863 C   0  0  0  0  0  4           0  0  0
   -2.1573    0.0391    7.2644 C   0  0  0  0  0  4           0  0  0
    3.0512    4.5638   -6.8519 C   0  0  1  0  0  4           0  0  0
    4.0242    5.7029   -7.0215 C   0  0  0  0  0  4           0  0  0
    4.4795    4.2943   -7.2502 C   0  0  0  0  0  4           0  0  0
  1 11  1  0     0  0
  1 12  1  0     0  0
  2 24  2  0     0  0
  3  4  1  0     0  0
  3 13  1  0     0  0
  4 16  2  0     0  0
  5 11  1  0     0  0
  5 14  2  0     0  0
  6 11  2  0     0  0
  6 15  1  0     0  0
  7 13  1  0     0  0
  7 14  1  0     0  0
  8 15  1  0     0  0
  8 25  1  0     0  0
  8 26  1  0     0  0
  9 17  1  0     0  0
  9 24  1  0     0  0
 10 27  1  0     0  0
 10 28  1  0     0  0
 10 29  1  0     0  0
 12 18  2  0     0  0
 12 19  1  0     0  0
 13 21  2  0     0  0
 14 20  1  0     0  0
 15 20  2  0     0  0
 16 21  1  0     0  0
 16 30  1  0     0  0
 17 22  2  0     0  0
 17 23  1  0     0  0
 18 22  1  0     0  0
 19 23  2  0     0  0
 24 31  1  0     0  0
 25 27  1  0     0  0
 26 28  1  0     0  0
 31 32  1  0     0  0
 31 33  1  0     0  0
 32 33  1  0     0  0
M  END
> <standard_type>
pIC50

> <# Confs.>
25

> <canonical_smiles>
CC1=NNC(NC2=NC(SC3=CC=C(NC(C4CC4)=O)C=C3)=NC(N5CCN(C)CC5)=C2)=C1

> <standard_relation>
=

> <Publication_ID>
nan

> <predicted_activity_value>
7.886056647693163

> <actual_activity_value>
7.7447274948966935

> <Compound>
10

> <standard_units>
nM

> hash
7402733853492314349

$$$$
10_
XXILIB    08252103493D 0   0.00000     0.00000

 33 37  0     1  0            999 V2000
    1.7803    0.0000   -0.0000 S   0  0  0  0  0  2           0  0  0
    3.0588   -6.5169   -2.2017 O   0  0  0  0  0  2           0  0  0
   -0.9940    0.0227    3.9348 N   0  0  0  0  0  3           0  0  0
   -0.7593    0.0238    5.2572 N   0  0  0  0  0  3           0  0  0
   -0.6499   -0.0000    1.1793 N   0  0  0  0  0  3           0  0  0
   -0.5925    0.0264   -1.2120 N   0  0  0  0  0  3           0  0  0
   -2.7679    0.0276    2.3298 N   0  0  0  0  0  3           0  0  0
   -2.5770    0.0695   -2.4961 N   0  0  2  0  0  3           0  0  0
    2.8891   -5.8844    0.0372 N   0  0  0  0  0  3           0  0  0
   -3.7451    0.4274   -5.0722 N   0  0  2  0  0  3           0  0  0
    0.0000    0.0000    0.0000 C   0  0  0  0  0  4           0  0  0
    2.0917   -1.7457    0.0000 C   0  0  0  0  0  4           0  0  0
   -2.3209    0.0325    3.6051 C   0  0  0  0  0  4           0  0  0
   -2.0016    0.0121    1.1403 C   0  0  0  0  0  4           0  0  0
   -1.9480    0.0445   -1.2661 C   0  0  0  0  0  4           0  0  0
   -1.9852    0.0405    5.7947 C   0  0  0  0  0  4           0  0  0
    2.6224   -4.5027   -0.0098 C   0  0  0  0  0  4           0  0  0
    2.2162   -2.4437    1.2055 C   0  0  0  0  0  4           0  0  0
    2.2390   -2.4320   -1.2097 C   0  0  0  0  0  4           0  0  0
   -2.6800    0.0398   -0.0788 C   0  0  0  0  0  4           0  0  0
   -2.9954    0.0455    4.8038 C   0  0  0  0  0  4           0  0  0
    2.4780   -3.8158    1.2000 C   0  0  0  0  0  4           0  0  0
    2.5012   -3.8046   -1.2160 C   0  0  0  0  0  4           0  0  0
    3.0718   -6.7782   -1.0041 C   0  0  0  0  0  4           0  0  0
   -1.7264    0.0751   -3.6883 C   0  0  0  0  0  4           0  0  0
   -3.9018    0.6835   -2.6171 C   0  0  0  0  0  4           0  0  0
   -2.5142   -0.3584   -4.9256 C   0  0  0  0  0  4           0  0  0
   -4.6026    0.2258   -3.8982 C   0  0  0  0  0  4           0  0  0
   -4.4517    0.0463   -6.2950 C   0  0  0  0  0  4           0  0  0
   -2.1573    0.0391    7.2644 C   0  0  0  0  0  4           0  0  0
    3.3356   -8.1651   -0.5516 C   0  0  1  0  0  4           0  0  0
    2.2904   -8.8849    0.2623 C   0  0  0  0  0  4           0  0  0
    2.5748   -9.3248   -1.1411 C   0  0  0  0  0  4           0  0  0
  1 11  1  0     0  0
  1 12  1  0     0  0
  2 24  2  0     0  0
  3  4  1  0     0  0
  3 13  1  0     0  0
  4 16  2  0     0  0
  5 11  1  0     0  0
  5 14  2  0     0  0
  6 11  2  0     0  0
  6 15  1  0     0  0
  7 13  1  0     0  0
  7 14  1  0     0  0
  8 15  1  0     0  0
  8 25  1  0     0  0
  8 26  1  0     0  0
  9 17  1  0     0  0
  9 24  1  0     0  0
 10 27  1  0     0  0
 10 28  1  0     0  0
 10 29  1  0     0  0
 12 18  2  0     0  0
 12 19  1  0     0  0
 13 21  2  0     0  0
 14 20  1  0     0  0
 15 20  2  0     0  0
 16 21  1  0     0  0
 16 30  1  0     0  0
 17 22  2  0     0  0
 17 23  1  0     0  0
 18 22  1  0     0  0
 19 23  2  0     0  0
 24 31  1  0     0  0
 25 27  1  0     0  0
 26 28  1  0     0  0
 31 32  1  0     0  0
 31 33  1  0     0  0
 32 33  1  0     0  0
M  END
> <standard_type>
pIC50

> <# Confs.>
25

> <canonical_smiles>
CC1=NNC(NC2=NC(SC3=CC=C(NC(C4CC4)=O)C=C3)=NC(N5CCN(C)CC5)=C2)=C1

> <standard_relation>
=

> <Publication_ID>
nan

> <predicted_activity_value>
7.886056647693163

> <actual_activity_value>
7.7447274948966935

> <Compound>
10

> <standard_units>
nM

> hash
7402733853492314349

$$$$
10_
XXILIB    08252103493D 0   0.00000     0.00000

 33 37  0     1  0            999 V2000
    1.7803    0.0000    0.0000 S   0  0  0  0  0  2           0  0  0
    3.0588    2.2017   -6.5169 O   0  0  0  0  0  2           0  0  0
   -0.9940    0.0227    3.9348 N   0  0  0  0  0  3           0  0  0
   -0.7593    0.0238    5.2572 N   0  0  0  0  0  3           0  0  0
   -0.6499   -0.0000    1.1793 N   0  0  0  0  0  3           0  0  0
   -0.5925    0.0264   -1.2120 N   0  0  0  0  0  3           0  0  0
   -2.7679    0.0276    2.3298 N   0  0  0  0  0  3           0  0  0
   -2.5770    0.0695   -2.4961 N   0  0  2  0  0  3           0  0  0
    2.8891   -0.0372   -5.8844 N   0  0  0  0  0  3           0  0  0
   -2.8893    1.9674   -4.5802 N   0  0  2  0  0  3           0  0  0
    0.0000    0.0000    0.0000 C   0  0  0  0  0  4           0  0  0
    2.0917    0.0000   -1.7457 C   0  0  0  0  0  4           0  0  0
   -2.3209    0.0325    3.6051 C   0  0  0  0  0  4           0  0  0
   -2.0016    0.0121    1.1403 C   0  0  0  0  0  4           0  0  0
   -1.9480    0.0445   -1.2661 C   0  0  0  0  0  4           0  0  0
   -1.9852    0.0405    5.7947 C   0  0  0  0  0  4           0  0  0
    2.6224    0.0098   -4.5027 C   0  0  0  0  0  4           0  0  0
    2.2162   -1.2055   -2.4437 C   0  0  0  0  0  4           0  0  0
    2.2390    1.2097   -2.4320 C   0  0  0  0  0  4           0  0  0
   -2.6800    0.0398   -0.0788 C   0  0  0  0  0  4           0  0  0
   -2.9954    0.0455    4.8038 C   0  0  0  0  0  4           0  0  0
    2.4780   -1.2000   -3.8158 C   0  0  0  0  0  4           0  0  0
    2.5012    1.2160   -3.8046 C   0  0  0  0  0  4           0  0  0
    3.0718    1.0041   -6.7782 C   0  0  0  0  0  4           0  0  0
   -3.8786    0.7089   -2.6897 C   0  0  0  0  0  4           0  0  0
   -1.7962   -0.0834   -3.7233 C   0  0  0  0  0  4           0  0  0
   -3.6572    2.0860   -3.3273 C   0  0  0  0  0  4           0  0  0
   -1.5950    1.2992   -4.3548 C   0  0  0  0  0  4           0  0  0
   -2.6904    3.2832   -5.1863 C   0  0  0  0  0  4           0  0  0
   -2.1573    0.0391    7.2644 C   0  0  0  0  0  4           0  0  0
    3.3356    0.5516   -8.1651 C   0  0  1  0  0  4           0  0  0
    2.2904   -0.2623   -8.8849 C   0  0  0  0  0  4           0  0  0
    2.5748    1.1411   -9.3248 C   0  0  0  0  0  4           0  0  0
  1 11  1  0     0  0
  1 12  1  0     0  0
  2 24  2  0     0  0
  3  4  1  0     0  0
  3 13  1  0     0  0
  4 16  2  0     0  0
  5 11  1  0     0  0
  5 14  2  0     0  0
  6 11  2  0     0  0
  6 15  1  0     0  0
  7 13  1  0     0  0
  7 14  1  0     0  0
  8 15  1  0     0  0
  8 25  1  0     0  0
  8 26  1  0     0  0
  9 17  1  0     0  0
  9 24  1  0     0  0
 10 27  1  0     0  0
 10 28  1  0     0  0
 10 29  1  0     0  0
 12 18  2  0     0  0
 12 19  1  0     0  0
 13 21  2  0     0  0
 14 20  1  0     0  0
 15 20  2  0     0  0
 16 21  1  0     0  0
 16 30  1  0     0  0
 17 22  2  0     0  0
 17 23  1  0     0  0
 18 22  1  0     0  0
 19 23  2  0     0  0
 24 31  1  0     0  0
 25 27  1  0     0  0
 26 28  1  0     0  0
 31 32  1  0     0  0
 31 33  1  0     0  0
 32 33  1  0     0  0
M  END
> <standard_type>
pIC50

> <# Confs.>
25

> <canonical_smiles>
CC1=NNC(NC2=NC(SC3=CC=C(NC(C4CC4)=O)C=C3)=NC(N5CCN(C)CC5)=C2)=C1

> <standard_relation>
=

> <Publication_ID>
nan

> <predicted_activity_value>
7.886056647693163

> <actual_activity_value>
7.7447274948966935

> <Compound>
10

> <standard_units>
nM

> hash
7402733853492314349

$$$$
10_
XXILIB    08252103493D 0   0.00000     0.00000

 33 37  0     1  0            999 V2000
    1.7803    0.0000   -0.0000 S   0  0  0  0  0  2           0  0  0
    3.0588   -6.5169   -2.2017 O   0  0  0  0  0  2           0  0  0
   -0.9940    0.0227    3.9348 N   0  0  0  0  0  3           0  0  0
   -0.7593    0.0238    5.2572 N   0  0  0  0  0  3           0  0  0
   -0.6499   -0.0000    1.1793 N   0  0  0  0  0  3           0  0  0
   -0.5925    0.0264   -1.2120 N   0  0  0  0  0  3           0  0  0
   -2.7679    0.0276    2.3298 N   0  0  0  0  0  3           0  0  0
   -2.5770    0.0695   -2.4961 N   0  0  2  0  0  3           0  0  0
    2.8891   -5.8844    0.0372 N   0  0  0  0  0  3           0  0  0
   -3.7451    0.4274   -5.0722 N   0  0  2  0  0  3           0  0  0
    0.0000    0.0000    0.0000 C   0  0  0  0  0  4           0  0  0
    2.0917   -1.7457    0.0000 C   0  0  0  0  0  4           0  0  0
   -2.3209    0.0325    3.6051 C   0  0  0  0  0  4           0  0  0
   -2.0016    0.0121    1.1403 C   0  0  0  0  0  4           0  0  0
   -1.9480    0.0445   -1.2661 C   0  0  0  0  0  4           0  0  0
   -1.9852    0.0405    5.7947 C   0  0  0  0  0  4           0  0  0
    2.6224   -4.5027   -0.0098 C   0  0  0  0  0  4           0  0  0
    2.2162   -2.4437    1.2055 C   0  0  0  0  0  4           0  0  0
    2.2390   -2.4320   -1.2097 C   0  0  0  0  0  4           0  0  0
   -2.6800    0.0398   -0.0788 C   0  0  0  0  0  4           0  0  0
   -2.9954    0.0455    4.8038 C   0  0  0  0  0  4           0  0  0
    2.4780   -3.8158    1.2000 C   0  0  0  0  0  4           0  0  0
    2.5012   -3.8046   -1.2160 C   0  0  0  0  0  4           0  0  0
    3.0718   -6.7782   -1.0041 C   0  0  0  0  0  4           0  0  0
   -1.7264    0.0751   -3.6883 C   0  0  0  0  0  4           0  0  0
   -3.9018    0.6835   -2.6171 C   0  0  0  0  0  4           0  0  0
   -2.5142   -0.3584   -4.9256 C   0  0  0  0  0  4           0  0  0
   -4.6026    0.2258   -3.8982 C   0  0  0  0  0  4           0  0  0
   -4.4517    0.0463   -6.2950 C   0  0  0  0  0  4           0  0  0
   -2.1573    0.0391    7.2644 C   0  0  0  0  0  4           0  0  0
    3.3356   -8.1651   -0.5516 C   0  0  1  0  0  4           0  0  0
    4.6427   -8.8219   -0.9165 C   0  0  0  0  0  4           0  0  0
    4.3704   -8.4455    0.5076 C   0  0  0  0  0  4           0  0  0
  1 11  1  0     0  0
  1 12  1  0     0  0
  2 24  2  0     0  0
  3  4  1  0     0  0
  3 13  1  0     0  0
  4 16  2  0     0  0
  5 11  1  0     0  0
  5 14  2  0     0  0
  6 11  2  0     0  0
  6 15  1  0     0  0
  7 13  1  0     0  0
  7 14  1  0     0  0
  8 15  1  0     0  0
  8 25  1  0     0  0
  8 26  1  0     0  0
  9 17  1  0     0  0
  9 24  1  0     0  0
 10 27  1  0     0  0
 10 28  1  0     0  0
 10 29  1  0     0  0
 12 18  2  0     0  0
 12 19  1  0     0  0
 13 21  2  0     0  0
 14 20  1  0     0  0
 15 20  2  0     0  0
 16 21  1  0     0  0
 16 30  1  0     0  0
 17 22  2  0     0  0
 17 23  1  0     0  0
 18 22  1  0     0  0
 19 23  2  0     0  0
 24 31  1  0     0  0
 25 27  1  0     0  0
 26 28  1  0     0  0
 31 32  1  0     0  0
 31 33  1  0     0  0
 32 33  1  0     0  0
M  END
> <standard_type>
pIC50

> <# Confs.>
25

> <canonical_smiles>
CC1=NNC(NC2=NC(SC3=CC=C(NC(C4CC4)=O)C=C3)=NC(N5CCN(C)CC5)=C2)=C1

> <standard_relation>
=

> <Publication_ID>
nan

> <predicted_activity_value>
7.886056647693163

> <actual_activity_value>
7.7447274948966935

> <Compound>
10

> <standard_units>
nM

> hash
7402733853492314349

$$$$
12_
XXILIB    08252103493D 0   0.00000     0.00000

 42 46  0     1  0            999 V2000
   -6.9270    0.3445    3.1148 S   0  0  0  0  0  2           0  0  0
  -10.0060    2.9659    5.6013 S   0  0  2  0  0  6           0  0  0
   -7.4063   -0.4841    8.2801 F   0  0  0  0  0  1           0  0  0
  -11.0907    2.0319    5.8349 O   0  0  0  0  0  2           0  0  0
  -10.2087    4.3903    5.7874 O   0  0  0  0  0  2           0  0  0
    1.3663   -0.0000    0.0000 O   0  0  0  0  0  2           0  0  0
    0.2150   -0.0040    2.3369 O   0  0  0  0  0  2           0  0  0
    4.6360   -5.8315   -5.3810 O   0  0  0  0  0  2           0  0  0
   -6.9609    1.0655    0.6466 N   0  0  0  0  0  3           0  0  0
   -4.9297   -0.0274   -1.0290 N   0  0  0  0  0  3           0  0  0
   -2.8681    0.0032   -2.2504 N   0  0  0  0  0  3           0  0  0
   -9.3448    2.6880    4.0550 N   0  0  0  0  0  3           0  0  0
   -4.9574   -0.0282    1.3548 N   0  0  0  0  0  3           0  0  0
    3.9895   -1.1211   -3.3670 N   0  0  1  0  0  3           0  0  0
   -6.2012    0.4712    1.5473 C   0  0  0  0  0  4           0  0  0
   -8.3382    1.1192    2.5352 C   0  0  0  0  0  4           0  0  0
   -8.6569    2.4874    6.6310 C   0  0  0  0  0  4           0  0  0
   -7.5108    0.7896    7.8767 C   0  0  0  0  0  4           0  0  0
    0.0000    0.0000    0.0000 C   0  0  0  0  0  4           0  0  0
   -0.6183    0.0000    1.2539 C   0  0  0  0  0  4           0  0  0
   -4.2048   -0.0171   -2.1556 C   0  0  0  0  0  4           0  0  0
   -4.2418    0.0017    0.1400 C   0  0  0  0  0  4           0  0  0
   -2.1835    0.0057   -1.0994 C   0  0  0  0  0  4           0  0  0
   -8.1690    1.4311    1.2037 C   0  0  0  0  0  4           0  0  0
   -2.8217    0.0002    0.1558 C   0  0  0  0  0  4           0  0  0
   -8.5661    1.1599    7.0485 C   0  0  0  0  0  4           0  0  0
   -7.7189    3.4356    7.0418 C   0  0  0  0  0  4           0  0  0
   -6.5617    1.7189    8.2934 C   0  0  0  0  0  4           0  0  0
   -0.7915    0.0082   -1.1551 C   0  0  0  0  0  4           0  0  0
   -2.0168   -0.0093    1.3250 C   0  0  0  0  0  4           0  0  0
   -6.6688    3.0442    7.8744 C   0  0  0  0  0  4           0  0  0
    1.9791    0.0000   -1.2891 C   0  0  0  0  0  4           0  0  0
    4.3754   -4.5608   -5.9639 C   0  0  0  0  0  4           0  0  0
   -0.4342   -0.0039    3.6055 C   0  0  0  0  0  4           0  0  0
   -9.5063    1.3690    3.4175 C   0  0  0  0  0  4           0  0  0
    4.2274    0.0000   -2.4549 C   0  0  0  0  0  4           0  0  0
    4.7787   -0.9463   -4.5960 C   0  0  0  0  0  4           0  0  0
    4.3002   -2.4127   -2.7332 C   0  0  0  0  0  4           0  0  0
    4.7582   -3.4431   -5.0032 C   0  0  1  0  0  4           0  0  0
    3.4927    0.0000   -1.1154 C   0  0  0  0  0  4           0  0  0
    4.4877   -2.0579   -5.6058 C   0  0  0  0  0  4           0  0  0
    4.0059   -3.5823   -3.6761 C   0  0  0  0  0  4           0  0  0
  1 15  1  0     0  0
  1 16  1  0     0  0
  2  4  2  0     0  0
  2  5  2  0     0  0
  2 12  1  0     0  0
  2 17  1  0     0  0
  3 18  1  0     0  0
  6 19  1  0     0  0
  6 32  1  0     0  0
  7 20  1  0     0  0
  7 34  1  0     0  0
  8 33  1  0     0  0
  9 15  2  0     0  0
  9 24  1  0     0  0
 10 21  1  0     0  0
 10 22  2  0     0  0
 11 21  2  0     0  0
 11 23  1  0     0  0
 12 35  1  0     0  0
 13 15  1  0     0  0
 13 22  1  0     0  0
 14 36  1  0     0  0
 14 37  1  0     0  0
 14 38  1  0     0  0
 16 24  2  0     0  0
 16 35  1  0     0  0
 17 26  1  0     0  0
 17 27  2  0     0  0
 18 26  2  0     0  0
 18 28  1  0     0  0
 19 20  1  0     0  0
 19 29  2  0     0  0
 20 30  2  0     0  0
 22 25  1  0     0  0
 23 25  2  0     0  0
 23 29  1  0     0  0
 25 30  1  0     0  0
 27 31  1  0     0  0
 28 31  2  0     0  0
 32 40  1  0     0  0
 33 39  1  0     0  0
 36 40  1  0     0  0
 37 41  1  0     0  0
 38 42  1  0     0  0
 39 41  1  0     0  0
 39 42  1  0     0  0
M  END
> <standard_type>
pIC50

> <# Confs.>
25

> <canonical_smiles>
OCC1CCN(CCCOC2=CC(N=CN=C3NC4=NC=C(CNS(=O)(C5=CC=CC(F)=C5)=O)S4)=C3C=C2OC)CC1

> <standard_relation>
=

> <Publication_ID>
nan

> <predicted_activity_value>
7.795880017344075

> <actual_activity_value>
7.552841968657781

> <Compound>
12

> <standard_units>
nM

> hash
16551182519414113262

$$$$
12_
XXILIB    08252103493D 0   0.00000     0.00000

 42 46  0     1  0            999 V2000
   -6.8888   -0.5644    3.1149 S   0  0  0  0  0  2           0  0  0
  -11.3554   -0.4966    4.7212 S   0  0  2  0  0  6           0  0  0
   -7.8003    0.8837    8.0817 F   0  0  0  0  0  1           0  0  0
  -11.4010   -1.6783    5.5607 O   0  0  0  0  0  2           0  0  0
  -12.5818    0.1436    4.2849 O   0  0  0  0  0  2           0  0  0
    1.3663   -0.0000    0.0000 O   0  0  0  0  0  2           0  0  0
    0.2150   -0.0040    2.3369 O   0  0  0  0  0  2           0  0  0
    4.6360   -5.8315   -5.3810 O   0  0  0  0  0  2           0  0  0
   -6.8594   -1.2913    0.6484 N   0  0  0  0  0  3           0  0  0
   -4.9297   -0.0274   -1.0290 N   0  0  0  0  0  3           0  0  0
   -2.8681    0.0032   -2.2504 N   0  0  0  0  0  3           0  0  0
  -10.3674   -0.8042    3.3666 N   0  0  0  0  0  3           0  0  0
   -4.9574   -0.0282    1.3548 N   0  0  0  0  0  3           0  0  0
    3.9895   -1.1211   -3.3670 N   0  0  1  0  0  3           0  0  0
   -6.1549   -0.6302    1.5474 C   0  0  0  0  0  4           0  0  0
   -8.2126   -1.4866    2.5451 C   0  0  0  0  0  4           0  0  0
  -10.3967    0.7208    5.5626 C   0  0  0  0  0  4           0  0  0
   -8.7138    1.2688    7.1799 C   0  0  0  0  0  4           0  0  0
    0.0000    0.0000    0.0000 C   0  0  0  0  0  4           0  0  0
   -0.6183    0.0000    1.2539 C   0  0  0  0  0  4           0  0  0
   -4.2048   -0.0171   -2.1556 C   0  0  0  0  0  4           0  0  0
   -4.2418    0.0017    0.1400 C   0  0  0  0  0  4           0  0  0
   -2.1835    0.0057   -1.0994 C   0  0  0  0  0  4           0  0  0
   -8.0217   -1.7765    1.2115 C   0  0  0  0  0  4           0  0  0
   -2.8217    0.0002    0.1558 C   0  0  0  0  0  4           0  0  0
   -9.4553    0.3047    6.5036 C   0  0  0  0  0  4           0  0  0
  -10.6065    2.0767    5.3073 C   0  0  0  0  0  4           0  0  0
   -8.9040    2.6261    6.9360 C   0  0  0  0  0  4           0  0  0
   -0.7915    0.0082   -1.1551 C   0  0  0  0  0  4           0  0  0
   -2.0168   -0.0093    1.3250 C   0  0  0  0  0  4           0  0  0
   -9.8537    3.0283    5.9979 C   0  0  0  0  0  4           0  0  0
    1.9791    0.0000   -1.2891 C   0  0  0  0  0  4           0  0  0
    4.3754   -4.5608   -5.9639 C   0  0  0  0  0  4           0  0  0
   -0.4342   -0.0039    3.6055 C   0  0  0  0  0  4           0  0  0
   -9.3411   -1.8597    3.4353 C   0  0  0  0  0  4           0  0  0
    4.2274    0.0000   -2.4549 C   0  0  0  0  0  4           0  0  0
    4.7787   -0.9463   -4.5960 C   0  0  0  0  0  4           0  0  0
    4.3002   -2.4127   -2.7332 C   0  0  0  0  0  4           0  0  0
    4.7582   -3.4431   -5.0032 C   0  0  1  0  0  4           0  0  0
    3.4927    0.0000   -1.1154 C   0  0  0  0  0  4           0  0  0
    4.4877   -2.0579   -5.6058 C   0  0  0  0  0  4           0  0  0
    4.0059   -3.5823   -3.6761 C   0  0  0  0  0  4           0  0  0
  1 15  1  0     0  0
  1 16  1  0     0  0
  2  4  2  0     0  0
  2  5  2  0     0  0
  2 12  1  0     0  0
  2 17  1  0     0  0
  3 18  1  0     0  0
  6 19  1  0     0  0
  6 32  1  0     0  0
  7 20  1  0     0  0
  7 34  1  0     0  0
  8 33  1  0     0  0
  9 15  2  0     0  0
  9 24  1  0     0  0
 10 21  1  0     0  0
 10 22  2  0     0  0
 11 21  2  0     0  0
 11 23  1  0     0  0
 12 35  1  0     0  0
 13 15  1  0     0  0
 13 22  1  0     0  0
 14 36  1  0     0  0
 14 37  1  0     0  0
 14 38  1  0     0  0
 16 24  2  0     0  0
 16 35  1  0     0  0
 17 26  1  0     0  0
 17 27  2  0     0  0
 18 26  2  0     0  0
 18 28  1  0     0  0
 19 20  1  0     0  0
 19 29  2  0     0  0
 20 30  2  0     0  0
 22 25  1  0     0  0
 23 25  2  0     0  0
 23 29  1  0     0  0
 25 30  1  0     0  0
 27 31  1  0     0  0
 28 31  2  0     0  0
 32 40  1  0     0  0
 33 39  1  0     0  0
 36 40  1  0     0  0
 37 41  1  0     0  0
 38 42  1  0     0  0
 39 41  1  0     0  0
 39 42  1  0     0  0
M  END
> <standard_type>
pIC50

> <# Confs.>
25

> <canonical_smiles>
OCC1CCN(CCCOC2=CC(N=CN=C3NC4=NC=C(CNS(=O)(C5=CC=CC(F)=C5)=O)S4)=C3C=C2OC)CC1

> <standard_relation>
=

> <Publication_ID>
nan

> <predicted_activity_value>
7.795880017344075

> <actual_activity_value>
7.552841968657781

> <Compound>
12

> <standard_units>
nM

> hash
16551182519414113262

$$$$
12_
XXILIB    08252103493D 0   0.00000     0.00000

 42 46  0     1  0            999 V2000
   -6.9270    0.3445    3.1148 S   0  0  0  0  0  2           0  0  0
  -12.0887    0.4314    3.5617 S   0  0  2  0  0  6           0  0  0
  -13.0621    3.5336   -0.3454 F   0  0  0  0  0  1           0  0  0
  -12.3173    1.6463    4.3201 O   0  0  0  0  0  2           0  0  0
  -12.6877   -0.8215    3.9812 O   0  0  0  0  0  2           0  0  0
    1.3663   -0.0000    0.0000 O   0  0  0  0  0  2           0  0  0
    0.2150   -0.0040    2.3369 O   0  0  0  0  0  2           0  0  0
    4.6360   -5.8315   -5.3810 O   0  0  0  0  0  2           0  0  0
   -6.9609    1.0655    0.6466 N   0  0  0  0  0  3           0  0  0
   -4.9297   -0.0274   -1.0290 N   0  0  0  0  0  3           0  0  0
   -2.8681    0.0032   -2.2504 N   0  0  0  0  0  3           0  0  0
  -10.4129    0.2095    3.3428 N   0  0  0  0  0  3           0  0  0
   -4.9574   -0.0282    1.3548 N   0  0  0  0  0  3           0  0  0
    3.9895   -1.1211   -3.3670 N   0  0  1  0  0  3           0  0  0
   -6.2012    0.4712    1.5473 C   0  0  0  0  0  4           0  0  0
   -8.3382    1.1192    2.5352 C   0  0  0  0  0  4           0  0  0
  -12.6041    0.7316    1.9024 C   0  0  0  0  0  4           0  0  0
  -13.0470    2.2790    0.1255 C   0  0  0  0  0  4           0  0  0
    0.0000    0.0000    0.0000 C   0  0  0  0  0  4           0  0  0
   -0.6183    0.0000    1.2539 C   0  0  0  0  0  4           0  0  0
   -4.2048   -0.0171   -2.1556 C   0  0  0  0  0  4           0  0  0
   -4.2418    0.0017    0.1400 C   0  0  0  0  0  4           0  0  0
   -2.1835    0.0057   -1.0994 C   0  0  0  0  0  4           0  0  0
   -8.1690    1.4311    1.2037 C   0  0  0  0  0  4           0  0  0
   -2.8217    0.0002    0.1558 C   0  0  0  0  0  4           0  0  0
  -12.6214    2.0434    1.4294 C   0  0  0  0  0  4           0  0  0
  -13.0163   -0.3291    1.0944 C   0  0  0  0  0  4           0  0  0
  -13.4571    1.2344   -0.6984 C   0  0  0  0  0  4           0  0  0
   -0.7915    0.0082   -1.1551 C   0  0  0  0  0  4           0  0  0
   -2.0168   -0.0093    1.3250 C   0  0  0  0  0  4           0  0  0
  -13.4417   -0.0713   -0.2101 C   0  0  0  0  0  4           0  0  0
    1.9791    0.0000   -1.2891 C   0  0  0  0  0  4           0  0  0
    4.3754   -4.5608   -5.9639 C   0  0  0  0  0  4           0  0  0
   -0.4342   -0.0039    3.6055 C   0  0  0  0  0  4           0  0  0
   -9.5063    1.3690    3.4175 C   0  0  0  0  0  4           0  0  0
    4.2274    0.0000   -2.4549 C   0  0  0  0  0  4           0  0  0
    4.7787   -0.9463   -4.5960 C   0  0  0  0  0  4           0  0  0
    4.3002   -2.4127   -2.7332 C   0  0  0  0  0  4           0  0  0
    4.7582   -3.4431   -5.0032 C   0  0  1  0  0  4           0  0  0
    3.4927    0.0000   -1.1154 C   0  0  0  0  0  4           0  0  0
    4.4877   -2.0579   -5.6058 C   0  0  0  0  0  4           0  0  0
    4.0059   -3.5823   -3.6761 C   0  0  0  0  0  4           0  0  0
  1 15  1  0     0  0
  1 16  1  0     0  0
  2  4  2  0     0  0
  2  5  2  0     0  0
  2 12  1  0     0  0
  2 17  1  0     0  0
  3 18  1  0     0  0
  6 19  1  0     0  0
  6 32  1  0     0  0
  7 20  1  0     0  0
  7 34  1  0     0  0
  8 33  1  0     0  0
  9 15  2  0     0  0
  9 24  1  0     0  0
 10 21  1  0     0  0
 10 22  2  0     0  0
 11 21  2  0     0  0
 11 23  1  0     0  0
 12 35  1  0     0  0
 13 15  1  0     0  0
 13 22  1  0     0  0
 14 36  1  0     0  0
 14 37  1  0     0  0
 14 38  1  0     0  0
 16 24  2  0     0  0
 16 35  1  0     0  0
 17 26  1  0     0  0
 17 27  2  0     0  0
 18 26  2  0     0  0
 18 28  1  0     0  0
 19 20  1  0     0  0
 19 29  2  0     0  0
 20 30  2  0     0  0
 22 25  1  0     0  0
 23 25  2  0     0  0
 23 29  1  0     0  0
 25 30  1  0     0  0
 27 31  1  0     0  0
 28 31  2  0     0  0
 32 40  1  0     0  0
 33 39  1  0     0  0
 36 40  1  0     0  0
 37 41  1  0     0  0
 38 42  1  0     0  0
 39 41  1  0     0  0
 39 42  1  0     0  0
M  END
> <standard_type>
pIC50

> <# Confs.>
25

> <canonical_smiles>
OCC1CCN(CCCOC2=CC(N=CN=C3NC4=NC=C(CNS(=O)(C5=CC=CC(F)=C5)=O)S4)=C3C=C2OC)CC1

> <standard_relation>
=

> <Publication_ID>
nan

> <predicted_activity_value>
7.795880017344075

> <actual_activity_value>
7.552841968657781

> <Compound>
12

> <standard_units>
nM

> hash
16551182519414113262

$$$$
12_
XXILIB    08252103493D 0   0.00000     0.00000

 42 46  0     1  0            999 V2000
   -6.9270    0.3445    3.1148 S   0  0  0  0  0  2           0  0  0
  -10.0060    2.9659    5.6013 S   0  0  2  0  0  6           0  0  0
   -7.4063   -0.4841    8.2801 F   0  0  0  0  0  1           0  0  0
  -11.0907    2.0319    5.8349 O   0  0  0  0  0  2           0  0  0
  -10.2087    4.3903    5.7874 O   0  0  0  0  0  2           0  0  0
    1.3663    0.0000    0.0000 O   0  0  0  0  0  2           0  0  0
    0.2150   -0.0040    2.3369 O   0  0  0  0  0  2           0  0  0
    5.0174    4.4515   -7.1767 O   0  0  0  0  0  2           0  0  0
   -6.9609    1.0655    0.6466 N   0  0  0  0  0  3           0  0  0
   -4.9297   -0.0274   -1.0290 N   0  0  0  0  0  3           0  0  0
   -2.8681    0.0032   -2.2504 N   0  0  0  0  0  3           0  0  0
   -9.3448    2.6880    4.0550 N   0  0  0  0  0  3           0  0  0
   -4.9574   -0.0282    1.3548 N   0  0  0  0  0  3           0  0  0
    3.9895    1.1211   -3.3670 N   0  0  1  0  0  3           0  0  0
   -6.2012    0.4712    1.5473 C   0  0  0  0  0  4           0  0  0
   -8.3382    1.1192    2.5352 C   0  0  0  0  0  4           0  0  0
   -8.6569    2.4874    6.6310 C   0  0  0  0  0  4           0  0  0
   -7.5108    0.7896    7.8767 C   0  0  0  0  0  4           0  0  0
    0.0000    0.0000    0.0000 C   0  0  0  0  0  4           0  0  0
   -0.6183    0.0000    1.2539 C   0  0  0  0  0  4           0  0  0
   -4.2048   -0.0171   -2.1556 C   0  0  0  0  0  4           0  0  0
   -4.2418    0.0017    0.1400 C   0  0  0  0  0  4           0  0  0
   -2.1835    0.0057   -1.0994 C   0  0  0  0  0  4           0  0  0
   -8.1690    1.4311    1.2037 C   0  0  0  0  0  4           0  0  0
   -2.8217    0.0002    0.1558 C   0  0  0  0  0  4           0  0  0
   -8.5661    1.1599    7.0485 C   0  0  0  0  0  4           0  0  0
   -7.7189    3.4356    7.0418 C   0  0  0  0  0  4           0  0  0
   -6.5617    1.7189    8.2934 C   0  0  0  0  0  4           0  0  0
   -0.7915    0.0082   -1.1551 C   0  0  0  0  0  4           0  0  0
   -2.0168   -0.0093    1.3250 C   0  0  0  0  0  4           0  0  0
   -6.6688    3.0442    7.8744 C   0  0  0  0  0  4           0  0  0
    1.9791    0.0000   -1.2891 C   0  0  0  0  0  4           0  0  0
    4.3662    4.5941   -5.9205 C   0  0  0  0  0  4           0  0  0
   -0.4342   -0.0039    3.6055 C   0  0  0  0  0  4           0  0  0
   -9.5063    1.3690    3.4175 C   0  0  0  0  0  4           0  0  0
    4.2274    0.0000   -2.4549 C   0  0  0  0  0  4           0  0  0
    4.3812    2.3848   -2.7240 C   0  0  0  0  0  4           0  0  0
    4.7054    0.9464   -4.6411 C   0  0  0  0  0  4           0  0  0
    4.7543    3.4572   -4.9849 C   0  0  1  0  0  4           0  0  0
    3.4927   -0.0000   -1.1154 C   0  0  0  0  0  4           0  0  0
    4.0658    3.5846   -3.6192 C   0  0  0  0  0  4           0  0  0
    4.4159    2.0988   -5.6066 C   0  0  0  0  0  4           0  0  0
  1 15  1  0     0  0
  1 16  1  0     0  0
  2  4  2  0     0  0
  2  5  2  0     0  0
  2 12  1  0     0  0
  2 17  1  0     0  0
  3 18  1  0     0  0
  6 19  1  0     0  0
  6 32  1  0     0  0
  7 20  1  0     0  0
  7 34  1  0     0  0
  8 33  1  0     0  0
  9 15  2  0     0  0
  9 24  1  0     0  0
 10 21  1  0     0  0
 10 22  2  0     0  0
 11 21  2  0     0  0
 11 23  1  0     0  0
 12 35  1  0     0  0
 13 15  1  0     0  0
 13 22  1  0     0  0
 14 36  1  0     0  0
 14 37  1  0     0  0
 14 38  1  0     0  0
 16 24  2  0     0  0
 16 35  1  0     0  0
 17 26  1  0     0  0
 17 27  2  0     0  0
 18 26  2  0     0  0
 18 28  1  0     0  0
 19 20  1  0     0  0
 19 29  2  0     0  0
 20 30  2  0     0  0
 22 25  1  0     0  0
 23 25  2  0     0  0
 23 29  1  0     0  0
 25 30  1  0     0  0
 27 31  1  0     0  0
 28 31  2  0     0  0
 32 40  1  0     0  0
 33 39  1  0     0  0
 36 40  1  0     0  0
 37 41  1  0     0  0
 38 42  1  0     0  0
 39 41  1  0     0  0
 39 42  1  0     0  0
M  END
> <standard_type>
pIC50

> <# Confs.>
25

> <canonical_smiles>
OCC1CCN(CCCOC2=CC(N=CN=C3NC4=NC=C(CNS(=O)(C5=CC=CC(F)=C5)=O)S4)=C3C=C2OC)CC1

> <standard_relation>
=

> <Publication_ID>
nan

> <predicted_activity_value>
7.795880017344075

> <actual_activity_value>
7.552841968657781

> <Compound>
12

> <standard_units>
nM

> hash
16551182519414113262

$$$$
12_
XXILIB    08252103493D 0   0.00000     0.00000

 42 46  0     1  0            999 V2000
   -6.9270    0.3445    3.1148 S   0  0  0  0  0  2           0  0  0
  -10.0060    2.9659    5.6013 S   0  0  2  0  0  6           0  0  0
   -5.7359    3.9792    8.1657 F   0  0  0  0  0  1           0  0  0
  -11.0907    2.0319    5.8349 O   0  0  0  0  0  2           0  0  0
  -10.2087    4.3903    5.7874 O   0  0  0  0  0  2           0  0  0
    1.3663   -0.0000    0.0000 O   0  0  0  0  0  2           0  0  0
    0.2150   -0.0040    2.3369 O   0  0  0  0  0  2           0  0  0
    4.6360   -5.8315   -5.3810 O   0  0  0  0  0  2           0  0  0
   -6.9609    1.0655    0.6466 N   0  0  0  0  0  3           0  0  0
   -4.9297   -0.0274   -1.0290 N   0  0  0  0  0  3           0  0  0
   -2.8681    0.0032   -2.2504 N   0  0  0  0  0  3           0  0  0
   -9.3448    2.6880    4.0550 N   0  0  0  0  0  3           0  0  0
   -4.9574   -0.0282    1.3548 N   0  0  0  0  0  3           0  0  0
    3.9895   -1.1211   -3.3670 N   0  0  1  0  0  3           0  0  0
   -6.2012    0.4712    1.5473 C   0  0  0  0  0  4           0  0  0
   -8.3382    1.1192    2.5352 C   0  0  0  0  0  4           0  0  0
   -8.6569    2.4874    6.6310 C   0  0  0  0  0  4           0  0  0
   -6.6431    3.0643    7.7969 C   0  0  0  0  0  4           0  0  0
    0.0000    0.0000    0.0000 C   0  0  0  0  0  4           0  0  0
   -0.6183    0.0000    1.2539 C   0  0  0  0  0  4           0  0  0
   -4.2048   -0.0171   -2.1556 C   0  0  0  0  0  4           0  0  0
   -4.2418    0.0017    0.1400 C   0  0  0  0  0  4           0  0  0
   -2.1835    0.0057   -1.0994 C   0  0  0  0  0  4           0  0  0
   -8.1690    1.4311    1.2037 C   0  0  0  0  0  4           0  0  0
   -2.8217    0.0002    0.1558 C   0  0  0  0  0  4           0  0  0
   -7.7171    3.4492    7.0001 C   0  0  0  0  0  4           0  0  0
   -8.5234    1.1591    7.0380 C   0  0  0  0  0  4           0  0  0
   -6.4946    1.7456    8.2180 C   0  0  0  0  0  4           0  0  0
   -0.7915    0.0082   -1.1551 C   0  0  0  0  0  4           0  0  0
   -2.0168   -0.0093    1.3250 C   0  0  0  0  0  4           0  0  0
   -7.4377    0.7929    7.8354 C   0  0  0  0  0  4           0  0  0
    1.9791    0.0000   -1.2891 C   0  0  0  0  0  4           0  0  0
    4.3754   -4.5608   -5.9639 C   0  0  0  0  0  4           0  0  0
   -0.4342   -0.0039    3.6055 C   0  0  0  0  0  4           0  0  0
   -9.5063    1.3690    3.4175 C   0  0  0  0  0  4           0  0  0
    4.2274    0.0000   -2.4549 C   0  0  0  0  0  4           0  0  0
    4.7787   -0.9463   -4.5960 C   0  0  0  0  0  4           0  0  0
    4.3002   -2.4127   -2.7332 C   0  0  0  0  0  4           0  0  0
    4.7582   -3.4431   -5.0032 C   0  0  1  0  0  4           0  0  0
    3.4927    0.0000   -1.1154 C   0  0  0  0  0  4           0  0  0
    4.4877   -2.0579   -5.6058 C   0  0  0  0  0  4           0  0  0
    4.0059   -3.5823   -3.6761 C   0  0  0  0  0  4           0  0  0
  1 15  1  0     0  0
  1 16  1  0     0  0
  2  4  2  0     0  0
  2  5  2  0     0  0
  2 12  1  0     0  0
  2 17  1  0     0  0
  3 18  1  0     0  0
  6 19  1  0     0  0
  6 32  1  0     0  0
  7 20  1  0     0  0
  7 34  1  0     0  0
  8 33  1  0     0  0
  9 15  2  0     0  0
  9 24  1  0     0  0
 10 21  1  0     0  0
 10 22  2  0     0  0
 11 21  2  0     0  0
 11 23  1  0     0  0
 12 35  1  0     0  0
 13 15  1  0     0  0
 13 22  1  0     0  0
 14 36  1  0     0  0
 14 37  1  0     0  0
 14 38  1  0     0  0
 16 24  2  0     0  0
 16 35  1  0     0  0
 17 26  1  0     0  0
 17 27  2  0     0  0
 18 26  2  0     0  0
 18 28  1  0     0  0
 19 20  1  0     0  0
 19 29  2  0     0  0
 20 30  2  0     0  0
 22 25  1  0     0  0
 23 25  2  0     0  0
 23 29  1  0     0  0
 25 30  1  0     0  0
 27 31  1  0     0  0
 28 31  2  0     0  0
 32 40  1  0     0  0
 33 39  1  0     0  0
 36 40  1  0     0  0
 37 41  1  0     0  0
 38 42  1  0     0  0
 39 41  1  0     0  0
 39 42  1  0     0  0
M  END
> <standard_type>
pIC50

> <# Confs.>
25

> <canonical_smiles>
OCC1CCN(CCCOC2=CC(N=CN=C3NC4=NC=C(CNS(=O)(C5=CC=CC(F)=C5)=O)S4)=C3C=C2OC)CC1

> <standard_relation>
=

> <Publication_ID>
nan

> <predicted_activity_value>
7.795880017344075

> <actual_activity_value>
7.552841968657781

> <Compound>
12

> <standard_units>
nM

> hash
16551182519414113262

$$$$
12_
XXILIB    08252103493D 0   0.00000     0.00000

 42 46  0     1  0            999 V2000
   -6.8888   -0.5644    3.1149 S   0  0  0  0  0  2           0  0  0
  -11.3554   -0.4966    4.7212 S   0  0  2  0  0  6           0  0  0
   -7.8003    0.8837    8.0817 F   0  0  0  0  0  1           0  0  0
  -11.4010   -1.6783    5.5607 O   0  0  0  0  0  2           0  0  0
  -12.5818    0.1436    4.2849 O   0  0  0  0  0  2           0  0  0
    1.3663    0.0000    0.0000 O   0  0  0  0  0  2           0  0  0
    0.2150   -0.0040    2.3369 O   0  0  0  0  0  2           0  0  0
    5.0174    4.4515   -7.1767 O   0  0  0  0  0  2           0  0  0
   -6.8594   -1.2913    0.6484 N   0  0  0  0  0  3           0  0  0
   -4.9297   -0.0274   -1.0290 N   0  0  0  0  0  3           0  0  0
   -2.8681    0.0032   -2.2504 N   0  0  0  0  0  3           0  0  0
  -10.3674   -0.8042    3.3666 N   0  0  0  0  0  3           0  0  0
   -4.9574   -0.0282    1.3548 N   0  0  0  0  0  3           0  0  0
    3.9895    1.1211   -3.3670 N   0  0  1  0  0  3           0  0  0
   -6.1549   -0.6302    1.5474 C   0  0  0  0  0  4           0  0  0
   -8.2126   -1.4866    2.5451 C   0  0  0  0  0  4           0  0  0
  -10.3967    0.7208    5.5626 C   0  0  0  0  0  4           0  0  0
   -8.7138    1.2688    7.1799 C   0  0  0  0  0  4           0  0  0
    0.0000    0.0000    0.0000 C   0  0  0  0  0  4           0  0  0
   -0.6183    0.0000    1.2539 C   0  0  0  0  0  4           0  0  0
   -4.2048   -0.0171   -2.1556 C   0  0  0  0  0  4           0  0  0
   -4.2418    0.0017    0.1400 C   0  0  0  0  0  4           0  0  0
   -2.1835    0.0057   -1.0994 C   0  0  0  0  0  4           0  0  0
   -8.0217   -1.7765    1.2115 C   0  0  0  0  0  4           0  0  0
   -2.8217    0.0002    0.1558 C   0  0  0  0  0  4           0  0  0
   -9.4553    0.3047    6.5036 C   0  0  0  0  0  4           0  0  0
  -10.6065    2.0767    5.3073 C   0  0  0  0  0  4           0  0  0
   -8.9040    2.6261    6.9360 C   0  0  0  0  0  4           0  0  0
   -0.7915    0.0082   -1.1551 C   0  0  0  0  0  4           0  0  0
   -2.0168   -0.0093    1.3250 C   0  0  0  0  0  4           0  0  0
   -9.8537    3.0283    5.9979 C   0  0  0  0  0  4           0  0  0
    1.9791    0.0000   -1.2891 C   0  0  0  0  0  4           0  0  0
    4.3662    4.5941   -5.9205 C   0  0  0  0  0  4           0  0  0
   -0.4342   -0.0039    3.6055 C   0  0  0  0  0  4           0  0  0
   -9.3411   -1.8597    3.4353 C   0  0  0  0  0  4           0  0  0
    4.2274    0.0000   -2.4549 C   0  0  0  0  0  4           0  0  0
    4.3812    2.3848   -2.7240 C   0  0  0  0  0  4           0  0  0
    4.7054    0.9464   -4.6411 C   0  0  0  0  0  4           0  0  0
    4.7543    3.4572   -4.9849 C   0  0  1  0  0  4           0  0  0
    3.4927   -0.0000   -1.1154 C   0  0  0  0  0  4           0  0  0
    4.0658    3.5846   -3.6192 C   0  0  0  0  0  4           0  0  0
    4.4159    2.0988   -5.6066 C   0  0  0  0  0  4           0  0  0
  1 15  1  0     0  0
  1 16  1  0     0  0
  2  4  2  0     0  0
  2  5  2  0     0  0
  2 12  1  0     0  0
  2 17  1  0     0  0
  3 18  1  0     0  0
  6 19  1  0     0  0
  6 32  1  0     0  0
  7 20  1  0     0  0
  7 34  1  0     0  0
  8 33  1  0     0  0
  9 15  2  0     0  0
  9 24  1  0     0  0
 10 21  1  0     0  0
 10 22  2  0     0  0
 11 21  2  0     0  0
 11 23  1  0     0  0
 12 35  1  0     0  0
 13 15  1  0     0  0
 13 22  1  0     0  0
 14 36  1  0     0  0
 14 37  1  0     0  0
 14 38  1  0     0  0
 16 24  2  0     0  0
 16 35  1  0     0  0
 17 26  1  0     0  0
 17 27  2  0     0  0
 18 26  2  0     0  0
 18 28  1  0     0  0
 19 20  1  0     0  0
 19 29  2  0     0  0
 20 30  2  0     0  0
 22 25  1  0     0  0
 23 25  2  0     0  0
 23 29  1  0     0  0
 25 30  1  0     0  0
 27 31  1  0     0  0
 28 31  2  0     0  0
 32 40  1  0     0  0
 33 39  1  0     0  0
 36 40  1  0     0  0
 37 41  1  0     0  0
 38 42  1  0     0  0
 39 41  1  0     0  0
 39 42  1  0     0  0
M  END
> <standard_type>
pIC50

> <# Confs.>
25

> <canonical_smiles>
OCC1CCN(CCCOC2=CC(N=CN=C3NC4=NC=C(CNS(=O)(C5=CC=CC(F)=C5)=O)S4)=C3C=C2OC)CC1

> <standard_relation>
=

> <Publication_ID>
nan

> <predicted_activity_value>
7.795880017344075

> <actual_activity_value>
7.552841968657781

> <Compound>
12

> <standard_units>
nM

> hash
16551182519414113262

$$$$
12_
XXILIB    08252103493D 0   0.00000     0.00000

 42 46  0     1  0            999 V2000
   -6.9270    0.3445    3.1148 S   0  0  0  0  0  2           0  0  0
  -10.0060    2.9659    5.6013 S   0  0  2  0  0  6           0  0  0
   -7.4063   -0.4841    8.2801 F   0  0  0  0  0  1           0  0  0
  -11.0907    2.0319    5.8349 O   0  0  0  0  0  2           0  0  0
  -10.2087    4.3903    5.7874 O   0  0  0  0  0  2           0  0  0
    1.3663   -0.0000    0.0000 O   0  0  0  0  0  2           0  0  0
    0.2150   -0.0040    2.3369 O   0  0  0  0  0  2           0  0  0
    6.8145   -3.4912   -6.3309 O   0  0  0  0  0  2           0  0  0
   -6.9609    1.0655    0.6466 N   0  0  0  0  0  3           0  0  0
   -4.9297   -0.0274   -1.0290 N   0  0  0  0  0  3           0  0  0
   -2.8681    0.0032   -2.2504 N   0  0  0  0  0  3           0  0  0
   -9.3448    2.6880    4.0550 N   0  0  0  0  0  3           0  0  0
   -4.9574   -0.0282    1.3548 N   0  0  0  0  0  3           0  0  0
    3.9895   -1.1211   -3.3670 N   0  0  1  0  0  3           0  0  0
   -6.2012    0.4712    1.5473 C   0  0  0  0  0  4           0  0  0
   -8.3382    1.1192    2.5352 C   0  0  0  0  0  4           0  0  0
   -8.6569    2.4874    6.6310 C   0  0  0  0  0  4           0  0  0
   -7.5108    0.7896    7.8767 C   0  0  0  0  0  4           0  0  0
    0.0000    0.0000    0.0000 C   0  0  0  0  0  4           0  0  0
   -0.6183    0.0000    1.2539 C   0  0  0  0  0  4           0  0  0
   -4.2048   -0.0171   -2.1556 C   0  0  0  0  0  4           0  0  0
   -4.2418    0.0017    0.1400 C   0  0  0  0  0  4           0  0  0
   -2.1835    0.0057   -1.0994 C   0  0  0  0  0  4           0  0  0
   -8.1690    1.4311    1.2037 C   0  0  0  0  0  4           0  0  0
   -2.8217    0.0002    0.1558 C   0  0  0  0  0  4           0  0  0
   -8.5661    1.1599    7.0485 C   0  0  0  0  0  4           0  0  0
   -7.7189    3.4356    7.0418 C   0  0  0  0  0  4           0  0  0
   -6.5617    1.7189    8.2934 C   0  0  0  0  0  4           0  0  0
   -0.7915    0.0082   -1.1551 C   0  0  0  0  0  4           0  0  0
   -2.0168   -0.0093    1.3250 C   0  0  0  0  0  4           0  0  0
   -6.6688    3.0442    7.8744 C   0  0  0  0  0  4           0  0  0
    1.9791    0.0000   -1.2891 C   0  0  0  0  0  4           0  0  0
    6.2453   -3.6554   -5.0380 C   0  0  0  0  0  4           0  0  0
   -0.4342   -0.0039    3.6055 C   0  0  0  0  0  4           0  0  0
   -9.5063    1.3690    3.4175 C   0  0  0  0  0  4           0  0  0
    4.2274    0.0000   -2.4549 C   0  0  0  0  0  4           0  0  0
    4.3690   -2.4077   -2.7610 C   0  0  0  0  0  4           0  0  0
    4.7085   -0.9054   -4.6324 C   0  0  0  0  0  4           0  0  0
    4.7427   -3.4130   -5.0804 C   0  0  1  0  0  4           0  0  0
    3.4927    0.0000   -1.1154 C   0  0  0  0  0  4           0  0  0
    4.0773   -3.5780   -3.7060 C   0  0  0  0  0  4           0  0  0
    4.4135   -2.0230   -5.6361 C   0  0  0  0  0  4           0  0  0
  1 15  1  0     0  0
  1 16  1  0     0  0
  2  4  2  0     0  0
  2  5  2  0     0  0
  2 12  1  0     0  0
  2 17  1  0     0  0
  3 18  1  0     0  0
  6 19  1  0     0  0
  6 32  1  0     0  0
  7 20  1  0     0  0
  7 34  1  0     0  0
  8 33  1  0     0  0
  9 15  2  0     0  0
  9 24  1  0     0  0
 10 21  1  0     0  0
 10 22  2  0     0  0
 11 21  2  0     0  0
 11 23  1  0     0  0
 12 35  1  0     0  0
 13 15  1  0     0  0
 13 22  1  0     0  0
 14 36  1  0     0  0
 14 37  1  0     0  0
 14 38  1  0     0  0
 16 24  2  0     0  0
 16 35  1  0     0  0
 17 26  1  0     0  0
 17 27  2  0     0  0
 18 26  2  0     0  0
 18 28  1  0     0  0
 19 20  1  0     0  0
 19 29  2  0     0  0
 20 30  2  0     0  0
 22 25  1  0     0  0
 23 25  2  0     0  0
 23 29  1  0     0  0
 25 30  1  0     0  0
 27 31  1  0     0  0
 28 31  2  0     0  0
 32 40  1  0     0  0
 33 39  1  0     0  0
 36 40  1  0     0  0
 37 41  1  0     0  0
 38 42  1  0     0  0
 39 41  1  0     0  0
 39 42  1  0     0  0
M  END
> <standard_type>
pIC50

> <# Confs.>
25

> <canonical_smiles>
OCC1CCN(CCCOC2=CC(N=CN=C3NC4=NC=C(CNS(=O)(C5=CC=CC(F)=C5)=O)S4)=C3C=C2OC)CC1

> <standard_relation>
=

> <Publication_ID>
nan

> <predicted_activity_value>
7.795880017344075

> <actual_activity_value>
7.552841968657781

> <Compound>
12

> <standard_units>
nM

> hash
16551182519414113262

$$$$
12_
XXILIB    08252103493D 0   0.00000     0.00000

 42 46  0     1  0            999 V2000
   -6.8888   -0.5644    3.1149 S   0  0  0  0  0  2           0  0  0
  -10.3045   -4.2070    4.4986 S   0  0  2  0  0  6           0  0  0
  -12.2884   -5.0680   -0.1014 F   0  0  0  0  0  1           0  0  0
  -11.5277   -3.4448    4.6599 O   0  0  0  0  0  2           0  0  0
   -9.8526   -5.1033    5.5459 O   0  0  0  0  0  2           0  0  0
    1.3663   -0.0000    0.0000 O   0  0  0  0  0  2           0  0  0
    0.2150   -0.0040    2.3369 O   0  0  0  0  0  2           0  0  0
    4.6360   -5.8315   -5.3810 O   0  0  0  0  0  2           0  0  0
   -6.8594   -1.2913    0.6484 N   0  0  0  0  0  3           0  0  0
   -4.9297   -0.0274   -1.0290 N   0  0  0  0  0  3           0  0  0
   -2.8681    0.0032   -2.2504 N   0  0  0  0  0  3           0  0  0
   -9.0346   -3.1531    4.0720 N   0  0  0  0  0  3           0  0  0
   -4.9574   -0.0282    1.3548 N   0  0  0  0  0  3           0  0  0
    3.9895   -1.1211   -3.3670 N   0  0  1  0  0  3           0  0  0
   -6.1549   -0.6302    1.5474 C   0  0  0  0  0  4           0  0  0
   -8.2126   -1.4866    2.5451 C   0  0  0  0  0  4           0  0  0
  -10.4578   -5.1582    3.0217 C   0  0  0  0  0  4           0  0  0
  -11.4613   -5.4816    0.8686 C   0  0  0  0  0  4           0  0  0
    0.0000    0.0000    0.0000 C   0  0  0  0  0  4           0  0  0
   -0.6183    0.0000    1.2539 C   0  0  0  0  0  4           0  0  0
   -4.2048   -0.0171   -2.1556 C   0  0  0  0  0  4           0  0  0
   -4.2418    0.0017    0.1400 C   0  0  0  0  0  4           0  0  0
   -2.1835    0.0057   -1.0994 C   0  0  0  0  0  4           0  0  0
   -8.0217   -1.7765    1.2115 C   0  0  0  0  0  4           0  0  0
   -2.8217    0.0002    0.1558 C   0  0  0  0  0  4           0  0  0
  -11.3281   -4.7186    2.0248 C   0  0  0  0  0  4           0  0  0
   -9.7400   -6.3462    2.8763 C   0  0  0  0  0  4           0  0  0
  -10.7503   -6.6668    0.7017 C   0  0  0  0  0  4           0  0  0
   -0.7915    0.0082   -1.1551 C   0  0  0  0  0  4           0  0  0
   -2.0168   -0.0093    1.3250 C   0  0  0  0  0  4           0  0  0
   -9.8892   -7.0983    1.7096 C   0  0  0  0  0  4           0  0  0
    1.9791    0.0000   -1.2891 C   0  0  0  0  0  4           0  0  0
    4.3754   -4.5608   -5.9639 C   0  0  0  0  0  4           0  0  0
   -0.4342   -0.0039    3.6055 C   0  0  0  0  0  4           0  0  0
   -9.3411   -1.8597    3.4353 C   0  0  0  0  0  4           0  0  0
    4.2274    0.0000   -2.4549 C   0  0  0  0  0  4           0  0  0
    4.7787   -0.9463   -4.5960 C   0  0  0  0  0  4           0  0  0
    4.3002   -2.4127   -2.7332 C   0  0  0  0  0  4           0  0  0
    4.7582   -3.4431   -5.0032 C   0  0  1  0  0  4           0  0  0
    3.4927    0.0000   -1.1154 C   0  0  0  0  0  4           0  0  0
    4.4877   -2.0579   -5.6058 C   0  0  0  0  0  4           0  0  0
    4.0059   -3.5823   -3.6761 C   0  0  0  0  0  4           0  0  0
  1 15  1  0     0  0
  1 16  1  0     0  0
  2  4  2  0     0  0
  2  5  2  0     0  0
  2 12  1  0     0  0
  2 17  1  0     0  0
  3 18  1  0     0  0
  6 19  1  0     0  0
  6 32  1  0     0  0
  7 20  1  0     0  0
  7 34  1  0     0  0
  8 33  1  0     0  0
  9 15  2  0     0  0
  9 24  1  0     0  0
 10 21  1  0     0  0
 10 22  2  0     0  0
 11 21  2  0     0  0
 11 23  1  0     0  0
 12 35  1  0     0  0
 13 15  1  0     0  0
 13 22  1  0     0  0
 14 36  1  0     0  0
 14 37  1  0     0  0
 14 38  1  0     0  0
 16 24  2  0     0  0
 16 35  1  0     0  0
 17 26  1  0     0  0
 17 27  2  0     0  0
 18 26  2  0     0  0
 18 28  1  0     0  0
 19 20  1  0     0  0
 19 29  2  0     0  0
 20 30  2  0     0  0
 22 25  1  0     0  0
 23 25  2  0     0  0
 23 29  1  0     0  0
 25 30  1  0     0  0
 27 31  1  0     0  0
 28 31  2  0     0  0
 32 40  1  0     0  0
 33 39  1  0     0  0
 36 40  1  0     0  0
 37 41  1  0     0  0
 38 42  1  0     0  0
 39 41  1  0     0  0
 39 42  1  0     0  0
M  END
> <standard_type>
pIC50

> <# Confs.>
25

> <canonical_smiles>
OCC1CCN(CCCOC2=CC(N=CN=C3NC4=NC=C(CNS(=O)(C5=CC=CC(F)=C5)=O)S4)=C3C=C2OC)CC1

> <standard_relation>
=

> <Publication_ID>
nan

> <predicted_activity_value>
7.795880017344075

> <actual_activity_value>
7.552841968657781

> <Compound>
12

> <standard_units>
nM

> hash
16551182519414113262

$$$$
12_
XXILIB    08252103493D 0   0.00000     0.00000

 42 46  0     1  0            999 V2000
   -6.8888   -0.5644    3.1149 S   0  0  0  0  0  2           0  0  0
  -11.3554   -0.4966    4.7212 S   0  0  2  0  0  6           0  0  0
   -7.8003    0.8837    8.0817 F   0  0  0  0  0  1           0  0  0
  -11.4010   -1.6783    5.5607 O   0  0  0  0  0  2           0  0  0
  -12.5818    0.1436    4.2849 O   0  0  0  0  0  2           0  0  0
    1.3663   -0.0000    0.0000 O   0  0  0  0  0  2           0  0  0
    0.2150   -0.0040    2.3369 O   0  0  0  0  0  2           0  0  0
    6.8145   -3.4912   -6.3309 O   0  0  0  0  0  2           0  0  0
   -6.8594   -1.2913    0.6484 N   0  0  0  0  0  3           0  0  0
   -4.9297   -0.0274   -1.0290 N   0  0  0  0  0  3           0  0  0
   -2.8681    0.0032   -2.2504 N   0  0  0  0  0  3           0  0  0
  -10.3674   -0.8042    3.3666 N   0  0  0  0  0  3           0  0  0
   -4.9574   -0.0282    1.3548 N   0  0  0  0  0  3           0  0  0
    3.9895   -1.1211   -3.3670 N   0  0  1  0  0  3           0  0  0
   -6.1549   -0.6302    1.5474 C   0  0  0  0  0  4           0  0  0
   -8.2126   -1.4866    2.5451 C   0  0  0  0  0  4           0  0  0
  -10.3967    0.7208    5.5626 C   0  0  0  0  0  4           0  0  0
   -8.7138    1.2688    7.1799 C   0  0  0  0  0  4           0  0  0
    0.0000    0.0000    0.0000 C   0  0  0  0  0  4           0  0  0
   -0.6183    0.0000    1.2539 C   0  0  0  0  0  4           0  0  0
   -4.2048   -0.0171   -2.1556 C   0  0  0  0  0  4           0  0  0
   -4.2418    0.0017    0.1400 C   0  0  0  0  0  4           0  0  0
   -2.1835    0.0057   -1.0994 C   0  0  0  0  0  4           0  0  0
   -8.0217   -1.7765    1.2115 C   0  0  0  0  0  4           0  0  0
   -2.8217    0.0002    0.1558 C   0  0  0  0  0  4           0  0  0
   -9.4553    0.3047    6.5036 C   0  0  0  0  0  4           0  0  0
  -10.6065    2.0767    5.3073 C   0  0  0  0  0  4           0  0  0
   -8.9040    2.6261    6.9360 C   0  0  0  0  0  4           0  0  0
   -0.7915    0.0082   -1.1551 C   0  0  0  0  0  4           0  0  0
   -2.0168   -0.0093    1.3250 C   0  0  0  0  0  4           0  0  0
   -9.8537    3.0283    5.9979 C   0  0  0  0  0  4           0  0  0
    1.9791    0.0000   -1.2891 C   0  0  0  0  0  4           0  0  0
    6.2453   -3.6554   -5.0380 C   0  0  0  0  0  4           0  0  0
   -0.4342   -0.0039    3.6055 C   0  0  0  0  0  4           0  0  0
   -9.3411   -1.8597    3.4353 C   0  0  0  0  0  4           0  0  0
    4.2274    0.0000   -2.4549 C   0  0  0  0  0  4           0  0  0
    4.3690   -2.4077   -2.7610 C   0  0  0  0  0  4           0  0  0
    4.7085   -0.9054   -4.6324 C   0  0  0  0  0  4           0  0  0
    4.7427   -3.4130   -5.0804 C   0  0  1  0  0  4           0  0  0
    3.4927    0.0000   -1.1154 C   0  0  0  0  0  4           0  0  0
    4.0773   -3.5780   -3.7060 C   0  0  0  0  0  4           0  0  0
    4.4135   -2.0230   -5.6361 C   0  0  0  0  0  4           0  0  0
  1 15  1  0     0  0
  1 16  1  0     0  0
  2  4  2  0     0  0
  2  5  2  0     0  0
  2 12  1  0     0  0
  2 17  1  0     0  0
  3 18  1  0     0  0
  6 19  1  0     0  0
  6 32  1  0     0  0
  7 20  1  0     0  0
  7 34  1  0     0  0
  8 33  1  0     0  0
  9 15  2  0     0  0
  9 24  1  0     0  0
 10 21  1  0     0  0
 10 22  2  0     0  0
 11 21  2  0     0  0
 11 23  1  0     0  0
 12 35  1  0     0  0
 13 15  1  0     0  0
 13 22  1  0     0  0
 14 36  1  0     0  0
 14 37  1  0     0  0
 14 38  1  0     0  0
 16 24  2  0     0  0
 16 35  1  0     0  0
 17 26  1  0     0  0
 17 27  2  0     0  0
 18 26  2  0     0  0
 18 28  1  0     0  0
 19 20  1  0     0  0
 19 29  2  0     0  0
 20 30  2  0     0  0
 22 25  1  0     0  0
 23 25  2  0     0  0
 23 29  1  0     0  0
 25 30  1  0     0  0
 27 31  1  0     0  0
 28 31  2  0     0  0
 32 40  1  0     0  0
 33 39  1  0     0  0
 36 40  1  0     0  0
 37 41  1  0     0  0
 38 42  1  0     0  0
 39 41  1  0     0  0
 39 42  1  0     0  0
M  END
> <standard_type>
pIC50

> <# Confs.>
25

> <canonical_smiles>
OCC1CCN(CCCOC2=CC(N=CN=C3NC4=NC=C(CNS(=O)(C5=CC=CC(F)=C5)=O)S4)=C3C=C2OC)CC1

> <standard_relation>
=

> <Publication_ID>
nan

> <predicted_activity_value>
7.795880017344075

> <actual_activity_value>
7.552841968657781

> <Compound>
12

> <standard_units>
nM

> hash
16551182519414113262

$$$$
12_
XXILIB    08252103493D 0   0.00000     0.00000

 42 46  0     1  0            999 V2000
   -6.9270    0.3445    3.1148 S   0  0  0  0  0  2           0  0  0
  -12.0887    0.4314    3.5617 S   0  0  2  0  0  6           0  0  0
  -13.7400   -1.1420   -0.9808 F   0  0  0  0  0  1           0  0  0
  -12.3173    1.6463    4.3201 O   0  0  0  0  0  2           0  0  0
  -12.6877   -0.8215    3.9812 O   0  0  0  0  0  2           0  0  0
    1.3663   -0.0000    0.0000 O   0  0  0  0  0  2           0  0  0
    0.2150   -0.0040    2.3369 O   0  0  0  0  0  2           0  0  0
    4.6360   -5.8315   -5.3810 O   0  0  0  0  0  2           0  0  0
   -6.9609    1.0655    0.6466 N   0  0  0  0  0  3           0  0  0
   -4.9297   -0.0274   -1.0290 N   0  0  0  0  0  3           0  0  0
   -2.8681    0.0032   -2.2504 N   0  0  0  0  0  3           0  0  0
  -10.4129    0.2095    3.3428 N   0  0  0  0  0  3           0  0  0
   -4.9574   -0.0282    1.3548 N   0  0  0  0  0  3           0  0  0
    3.9895   -1.1211   -3.3670 N   0  0  1  0  0  3           0  0  0
   -6.2012    0.4712    1.5473 C   0  0  0  0  0  4           0  0  0
   -8.3382    1.1192    2.5352 C   0  0  0  0  0  4           0  0  0
  -12.6041    0.7316    1.9024 C   0  0  0  0  0  4           0  0  0
  -13.3685   -0.1125   -0.2073 C   0  0  0  0  0  4           0  0  0
    0.0000    0.0000    0.0000 C   0  0  0  0  0  4           0  0  0
   -0.6183    0.0000    1.2539 C   0  0  0  0  0  4           0  0  0
   -4.2048   -0.0171   -2.1556 C   0  0  0  0  0  4           0  0  0
   -4.2418    0.0017    0.1400 C   0  0  0  0  0  4           0  0  0
   -2.1835    0.0057   -1.0994 C   0  0  0  0  0  4           0  0  0
   -8.1690    1.4311    1.2037 C   0  0  0  0  0  4           0  0  0
   -2.8217    0.0002    0.1558 C   0  0  0  0  0  4           0  0  0
  -12.9805   -0.3508    1.1077 C   0  0  0  0  0  4           0  0  0
  -12.6012    2.0308    1.3924 C   0  0  0  0  0  4           0  0  0
  -13.3777    1.1763   -0.7335 C   0  0  0  0  0  4           0  0  0
   -0.7915    0.0082   -1.1551 C   0  0  0  0  0  4           0  0  0
   -2.0168   -0.0093    1.3250 C   0  0  0  0  0  4           0  0  0
  -12.9919    2.2483    0.0699 C   0  0  0  0  0  4           0  0  0
    1.9791    0.0000   -1.2891 C   0  0  0  0  0  4           0  0  0
    4.3754   -4.5608   -5.9639 C   0  0  0  0  0  4           0  0  0
   -0.4342   -0.0039    3.6055 C   0  0  0  0  0  4           0  0  0
   -9.5063    1.3690    3.4175 C   0  0  0  0  0  4           0  0  0
    4.2274    0.0000   -2.4549 C   0  0  0  0  0  4           0  0  0
    4.7787   -0.9463   -4.5960 C   0  0  0  0  0  4           0  0  0
    4.3002   -2.4127   -2.7332 C   0  0  0  0  0  4           0  0  0
    4.7582   -3.4431   -5.0032 C   0  0  1  0  0  4           0  0  0
    3.4927    0.0000   -1.1154 C   0  0  0  0  0  4           0  0  0
    4.4877   -2.0579   -5.6058 C   0  0  0  0  0  4           0  0  0
    4.0059   -3.5823   -3.6761 C   0  0  0  0  0  4           0  0  0
  1 15  1  0     0  0
  1 16  1  0     0  0
  2  4  2  0     0  0
  2  5  2  0     0  0
  2 12  1  0     0  0
  2 17  1  0     0  0
  3 18  1  0     0  0
  6 19  1  0     0  0
  6 32  1  0     0  0
  7 20  1  0     0  0
  7 34  1  0     0  0
  8 33  1  0     0  0
  9 15  2  0     0  0
  9 24  1  0     0  0
 10 21  1  0     0  0
 10 22  2  0     0  0
 11 21  2  0     0  0
 11 23  1  0     0  0
 12 35  1  0     0  0
 13 15  1  0     0  0
 13 22  1  0     0  0
 14 36  1  0     0  0
 14 37  1  0     0  0
 14 38  1  0     0  0
 16 24  2  0     0  0
 16 35  1  0     0  0
 17 26  1  0     0  0
 17 27  2  0     0  0
 18 26  2  0     0  0
 18 28  1  0     0  0
 19 20  1  0     0  0
 19 29  2  0     0  0
 20 30  2  0     0  0
 22 25  1  0     0  0
 23 25  2  0     0  0
 23 29  1  0     0  0
 25 30  1  0     0  0
 27 31  1  0     0  0
 28 31  2  0     0  0
 32 40  1  0     0  0
 33 39  1  0     0  0
 36 40  1  0     0  0
 37 41  1  0     0  0
 38 42  1  0     0  0
 39 41  1  0     0  0
 39 42  1  0     0  0
M  END
> <standard_type>
pIC50

> <# Confs.>
25

> <canonical_smiles>
OCC1CCN(CCCOC2=CC(N=CN=C3NC4=NC=C(CNS(=O)(C5=CC=CC(F)=C5)=O)S4)=C3C=C2OC)CC1

> <standard_relation>
=

> <Publication_ID>
nan

> <predicted_activity_value>
7.795880017344075

> <actual_activity_value>
7.552841968657781

> <Compound>
12

> <standard_units>
nM

> hash
16551182519414113262

$$$$
12_
XXILIB    08252103493D 0   0.00000     0.00000

 42 46  0     1  0            999 V2000
   -6.9270    0.3445    3.1148 S   0  0  0  0  0  2           0  0  0
  -12.0887    0.4314    3.5617 S   0  0  2  0  0  6           0  0  0
  -13.0621    3.5336   -0.3454 F   0  0  0  0  0  1           0  0  0
  -12.3173    1.6463    4.3201 O   0  0  0  0  0  2           0  0  0
  -12.6877   -0.8215    3.9812 O   0  0  0  0  0  2           0  0  0
    1.3663    0.0000    0.0000 O   0  0  0  0  0  2           0  0  0
    0.2150   -0.0040    2.3369 O   0  0  0  0  0  2           0  0  0
    5.0174    4.4515   -7.1767 O   0  0  0  0  0  2           0  0  0
   -6.9609    1.0655    0.6466 N   0  0  0  0  0  3           0  0  0
   -4.9297   -0.0274   -1.0290 N   0  0  0  0  0  3           0  0  0
   -2.8681    0.0032   -2.2504 N   0  0  0  0  0  3           0  0  0
  -10.4129    0.2095    3.3428 N   0  0  0  0  0  3           0  0  0
   -4.9574   -0.0282    1.3548 N   0  0  0  0  0  3           0  0  0
    3.9895    1.1211   -3.3670 N   0  0  1  0  0  3           0  0  0
   -6.2012    0.4712    1.5473 C   0  0  0  0  0  4           0  0  0
   -8.3382    1.1192    2.5352 C   0  0  0  0  0  4           0  0  0
  -12.6041    0.7316    1.9024 C   0  0  0  0  0  4           0  0  0
  -13.0470    2.2790    0.1255 C   0  0  0  0  0  4           0  0  0
    0.0000    0.0000    0.0000 C   0  0  0  0  0  4           0  0  0
   -0.6183    0.0000    1.2539 C   0  0  0  0  0  4           0  0  0
   -4.2048   -0.0171   -2.1556 C   0  0  0  0  0  4           0  0  0
   -4.2418    0.0017    0.1400 C   0  0  0  0  0  4           0  0  0
   -2.1835    0.0057   -1.0994 C   0  0  0  0  0  4           0  0  0
   -8.1690    1.4311    1.2037 C   0  0  0  0  0  4           0  0  0
   -2.8217    0.0002    0.1558 C   0  0  0  0  0  4           0  0  0
  -12.6214    2.0434    1.4294 C   0  0  0  0  0  4           0  0  0
  -13.0163   -0.3291    1.0944 C   0  0  0  0  0  4           0  0  0
  -13.4571    1.2344   -0.6984 C   0  0  0  0  0  4           0  0  0
   -0.7915    0.0082   -1.1551 C   0  0  0  0  0  4           0  0  0
   -2.0168   -0.0093    1.3250 C   0  0  0  0  0  4           0  0  0
  -13.4417   -0.0713   -0.2101 C   0  0  0  0  0  4           0  0  0
    1.9791    0.0000   -1.2891 C   0  0  0  0  0  4           0  0  0
    4.3662    4.5941   -5.9205 C   0  0  0  0  0  4           0  0  0
   -0.4342   -0.0039    3.6055 C   0  0  0  0  0  4           0  0  0
   -9.5063    1.3690    3.4175 C   0  0  0  0  0  4           0  0  0
    4.2274    0.0000   -2.4549 C   0  0  0  0  0  4           0  0  0
    4.3812    2.3848   -2.7240 C   0  0  0  0  0  4           0  0  0
    4.7054    0.9464   -4.6411 C   0  0  0  0  0  4           0  0  0
    4.7543    3.4572   -4.9849 C   0  0  1  0  0  4           0  0  0
    3.4927   -0.0000   -1.1154 C   0  0  0  0  0  4           0  0  0
    4.0658    3.5846   -3.6192 C   0  0  0  0  0  4           0  0  0
    4.4159    2.0988   -5.6066 C   0  0  0  0  0  4           0  0  0
  1 15  1  0     0  0
  1 16  1  0     0  0
  2  4  2  0     0  0
  2  5  2  0     0  0
  2 12  1  0     0  0
  2 17  1  0     0  0
  3 18  1  0     0  0
  6 19  1  0     0  0
  6 32  1  0     0  0
  7 20  1  0     0  0
  7 34  1  0     0  0
  8 33  1  0     0  0
  9 15  2  0     0  0
  9 24  1  0     0  0
 10 21  1  0     0  0
 10 22  2  0     0  0
 11 21  2  0     0  0
 11 23  1  0     0  0
 12 35  1  0     0  0
 13 15  1  0     0  0
 13 22  1  0     0  0
 14 36  1  0     0  0
 14 37  1  0     0  0
 14 38  1  0     0  0
 16 24  2  0     0  0
 16 35  1  0     0  0
 17 26  1  0     0  0
 17 27  2  0     0  0
 18 26  2  0     0  0
 18 28  1  0     0  0
 19 20  1  0     0  0
 19 29  2  0     0  0
 20 30  2  0     0  0
 22 25  1  0     0  0
 23 25  2  0     0  0
 23 29  1  0     0  0
 25 30  1  0     0  0
 27 31  1  0     0  0
 28 31  2  0     0  0
 32 40  1  0     0  0
 33 39  1  0     0  0
 36 40  1  0     0  0
 37 41  1  0     0  0
 38 42  1  0     0  0
 39 41  1  0     0  0
 39 42  1  0     0  0
M  END
> <standard_type>
pIC50

> <# Confs.>
25

> <canonical_smiles>
OCC1CCN(CCCOC2=CC(N=CN=C3NC4=NC=C(CNS(=O)(C5=CC=CC(F)=C5)=O)S4)=C3C=C2OC)CC1

> <standard_relation>
=

> <Publication_ID>
nan

> <predicted_activity_value>
7.795880017344075

> <actual_activity_value>
7.552841968657781

> <Compound>
12

> <standard_units>
nM

> hash
16551182519414113262

$$$$
12_
XXILIB    08252103493D 0   0.00000     0.00000

 42 46  0     1  0            999 V2000
   -6.9270    0.3445    3.1148 S   0  0  0  0  0  2           0  0  0
  -10.0060    2.9659    5.6013 S   0  0  2  0  0  6           0  0  0
   -5.7359    3.9792    8.1657 F   0  0  0  0  0  1           0  0  0
  -11.0907    2.0319    5.8349 O   0  0  0  0  0  2           0  0  0
  -10.2087    4.3903    5.7874 O   0  0  0  0  0  2           0  0  0
    1.3663    0.0000    0.0000 O   0  0  0  0  0  2           0  0  0
    0.2150   -0.0040    2.3369 O   0  0  0  0  0  2           0  0  0
    5.0174    4.4515   -7.1767 O   0  0  0  0  0  2           0  0  0
   -6.9609    1.0655    0.6466 N   0  0  0  0  0  3           0  0  0
   -4.9297   -0.0274   -1.0290 N   0  0  0  0  0  3           0  0  0
   -2.8681    0.0032   -2.2504 N   0  0  0  0  0  3           0  0  0
   -9.3448    2.6880    4.0550 N   0  0  0  0  0  3           0  0  0
   -4.9574   -0.0282    1.3548 N   0  0  0  0  0  3           0  0  0
    3.9895    1.1211   -3.3670 N   0  0  1  0  0  3           0  0  0
   -6.2012    0.4712    1.5473 C   0  0  0  0  0  4           0  0  0
   -8.3382    1.1192    2.5352 C   0  0  0  0  0  4           0  0  0
   -8.6569    2.4874    6.6310 C   0  0  0  0  0  4           0  0  0
   -6.6431    3.0643    7.7969 C   0  0  0  0  0  4           0  0  0
    0.0000    0.0000    0.0000 C   0  0  0  0  0  4           0  0  0
   -0.6183    0.0000    1.2539 C   0  0  0  0  0  4           0  0  0
   -4.2048   -0.0171   -2.1556 C   0  0  0  0  0  4           0  0  0
   -4.2418    0.0017    0.1400 C   0  0  0  0  0  4           0  0  0
   -2.1835    0.0057   -1.0994 C   0  0  0  0  0  4           0  0  0
   -8.1690    1.4311    1.2037 C   0  0  0  0  0  4           0  0  0
   -2.8217    0.0002    0.1558 C   0  0  0  0  0  4           0  0  0
   -7.7171    3.4492    7.0001 C   0  0  0  0  0  4           0  0  0
   -8.5234    1.1591    7.0380 C   0  0  0  0  0  4           0  0  0
   -6.4946    1.7456    8.2180 C   0  0  0  0  0  4           0  0  0
   -0.7915    0.0082   -1.1551 C   0  0  0  0  0  4           0  0  0
   -2.0168   -0.0093    1.3250 C   0  0  0  0  0  4           0  0  0
   -7.4377    0.7929    7.8354 C   0  0  0  0  0  4           0  0  0
    1.9791    0.0000   -1.2891 C   0  0  0  0  0  4           0  0  0
    4.3662    4.5941   -5.9205 C   0  0  0  0  0  4           0  0  0
   -0.4342   -0.0039    3.6055 C   0  0  0  0  0  4           0  0  0
   -9.5063    1.3690    3.4175 C   0  0  0  0  0  4           0  0  0
    4.2274    0.0000   -2.4549 C   0  0  0  0  0  4           0  0  0
    4.3812    2.3848   -2.7240 C   0  0  0  0  0  4           0  0  0
    4.7054    0.9464   -4.6411 C   0  0  0  0  0  4           0  0  0
    4.7543    3.4572   -4.9849 C   0  0  1  0  0  4           0  0  0
    3.4927   -0.0000   -1.1154 C   0  0  0  0  0  4           0  0  0
    4.0658    3.5846   -3.6192 C   0  0  0  0  0  4           0  0  0
    4.4159    2.0988   -5.6066 C   0  0  0  0  0  4           0  0  0
  1 15  1  0     0  0
  1 16  1  0     0  0
  2  4  2  0     0  0
  2  5  2  0     0  0
  2 12  1  0     0  0
  2 17  1  0     0  0
  3 18  1  0     0  0
  6 19  1  0     0  0
  6 32  1  0     0  0
  7 20  1  0     0  0
  7 34  1  0     0  0
  8 33  1  0     0  0
  9 15  2  0     0  0
  9 24  1  0     0  0
 10 21  1  0     0  0
 10 22  2  0     0  0
 11 21  2  0     0  0
 11 23  1  0     0  0
 12 35  1  0     0  0
 13 15  1  0     0  0
 13 22  1  0     0  0
 14 36  1  0     0  0
 14 37  1  0     0  0
 14 38  1  0     0  0
 16 24  2  0     0  0
 16 35  1  0     0  0
 17 26  1  0     0  0
 17 27  2  0     0  0
 18 26  2  0     0  0
 18 28  1  0     0  0
 19 20  1  0     0  0
 19 29  2  0     0  0
 20 30  2  0     0  0
 22 25  1  0     0  0
 23 25  2  0     0  0
 23 29  1  0     0  0
 25 30  1  0     0  0
 27 31  1  0     0  0
 28 31  2  0     0  0
 32 40  1  0     0  0
 33 39  1  0     0  0
 36 40  1  0     0  0
 37 41  1  0     0  0
 38 42  1  0     0  0
 39 41  1  0     0  0
 39 42  1  0     0  0
M  END
> <standard_type>
pIC50

> <# Confs.>
25

> <canonical_smiles>
OCC1CCN(CCCOC2=CC(N=CN=C3NC4=NC=C(CNS(=O)(C5=CC=CC(F)=C5)=O)S4)=C3C=C2OC)CC1

> <standard_relation>
=

> <Publication_ID>
nan

> <predicted_activity_value>
7.795880017344075

> <actual_activity_value>
7.552841968657781

> <Compound>
12

> <standard_units>
nM

> hash
16551182519414113262

$$$$
12_
XXILIB    08252103493D 0   0.00000     0.00000

 42 46  0     1  0            999 V2000
   -6.8888   -0.5644    3.1149 S   0  0  0  0  0  2           0  0  0
  -11.3554   -0.4966    4.7212 S   0  0  2  0  0  6           0  0  0
  -10.0286    4.3223    5.6455 F   0  0  0  0  0  1           0  0  0
  -11.4010   -1.6783    5.5607 O   0  0  0  0  0  2           0  0  0
  -12.5818    0.1436    4.2849 O   0  0  0  0  0  2           0  0  0
    1.3663   -0.0000    0.0000 O   0  0  0  0  0  2           0  0  0
    0.2150   -0.0040    2.3369 O   0  0  0  0  0  2           0  0  0
    4.6360   -5.8315   -5.3810 O   0  0  0  0  0  2           0  0  0
   -6.8594   -1.2913    0.6484 N   0  0  0  0  0  3           0  0  0
   -4.9297   -0.0274   -1.0290 N   0  0  0  0  0  3           0  0  0
   -2.8681    0.0032   -2.2504 N   0  0  0  0  0  3           0  0  0
  -10.3674   -0.8042    3.3666 N   0  0  0  0  0  3           0  0  0
   -4.9574   -0.0282    1.3548 N   0  0  0  0  0  3           0  0  0
    3.9895   -1.1211   -3.3670 N   0  0  1  0  0  3           0  0  0
   -6.1549   -0.6302    1.5474 C   0  0  0  0  0  4           0  0  0
   -8.2126   -1.4866    2.5451 C   0  0  0  0  0  4           0  0  0
  -10.3967    0.7208    5.5626 C   0  0  0  0  0  4           0  0  0
   -9.8340    3.0243    5.9162 C   0  0  0  0  0  4           0  0  0
    0.0000    0.0000    0.0000 C   0  0  0  0  0  4           0  0  0
   -0.6183    0.0000    1.2539 C   0  0  0  0  0  4           0  0  0
   -4.2048   -0.0171   -2.1556 C   0  0  0  0  0  4           0  0  0
   -4.2418    0.0017    0.1400 C   0  0  0  0  0  4           0  0  0
   -2.1835    0.0057   -1.0994 C   0  0  0  0  0  4           0  0  0
   -8.0217   -1.7765    1.2115 C   0  0  0  0  0  4           0  0  0
   -2.8217    0.0002    0.1558 C   0  0  0  0  0  4           0  0  0
  -10.6056    2.0670    5.2645 C   0  0  0  0  0  4           0  0  0
   -9.4254    0.3318    6.4863 C   0  0  0  0  0  4           0  0  0
   -8.8638    2.6574    6.8448 C   0  0  0  0  0  4           0  0  0
   -0.7915    0.0082   -1.1551 C   0  0  0  0  0  4           0  0  0
   -2.0168   -0.0093    1.3250 C   0  0  0  0  0  4           0  0  0
   -8.6604    1.3076    7.1278 C   0  0  0  0  0  4           0  0  0
    1.9791    0.0000   -1.2891 C   0  0  0  0  0  4           0  0  0
    4.3754   -4.5608   -5.9639 C   0  0  0  0  0  4           0  0  0
   -0.4342   -0.0039    3.6055 C   0  0  0  0  0  4           0  0  0
   -9.3411   -1.8597    3.4353 C   0  0  0  0  0  4           0  0  0
    4.2274    0.0000   -2.4549 C   0  0  0  0  0  4           0  0  0
    4.7787   -0.9463   -4.5960 C   0  0  0  0  0  4           0  0  0
    4.3002   -2.4127   -2.7332 C   0  0  0  0  0  4           0  0  0
    4.7582   -3.4431   -5.0032 C   0  0  1  0  0  4           0  0  0
    3.4927    0.0000   -1.1154 C   0  0  0  0  0  4           0  0  0
    4.4877   -2.0579   -5.6058 C   0  0  0  0  0  4           0  0  0
    4.0059   -3.5823   -3.6761 C   0  0  0  0  0  4           0  0  0
  1 15  1  0     0  0
  1 16  1  0     0  0
  2  4  2  0     0  0
  2  5  2  0     0  0
  2 12  1  0     0  0
  2 17  1  0     0  0
  3 18  1  0     0  0
  6 19  1  0     0  0
  6 32  1  0     0  0
  7 20  1  0     0  0
  7 34  1  0     0  0
  8 33  1  0     0  0
  9 15  2  0     0  0
  9 24  1  0     0  0
 10 21  1  0     0  0
 10 22  2  0     0  0
 11 21  2  0     0  0
 11 23  1  0     0  0
 12 35  1  0     0  0
 13 15  1  0     0  0
 13 22  1  0     0  0
 14 36  1  0     0  0
 14 37  1  0     0  0
 14 38  1  0     0  0
 16 24  2  0     0  0
 16 35  1  0     0  0
 17 26  1  0     0  0
 17 27  2  0     0  0
 18 26  2  0     0  0
 18 28  1  0     0  0
 19 20  1  0     0  0
 19 29  2  0     0  0
 20 30  2  0     0  0
 22 25  1  0     0  0
 23 25  2  0     0  0
 23 29  1  0     0  0
 25 30  1  0     0  0
 27 31  1  0     0  0
 28 31  2  0     0  0
 32 40  1  0     0  0
 33 39  1  0     0  0
 36 40  1  0     0  0
 37 41  1  0     0  0
 38 42  1  0     0  0
 39 41  1  0     0  0
 39 42  1  0     0  0
M  END
> <standard_type>
pIC50

> <# Confs.>
25

> <canonical_smiles>
OCC1CCN(CCCOC2=CC(N=CN=C3NC4=NC=C(CNS(=O)(C5=CC=CC(F)=C5)=O)S4)=C3C=C2OC)CC1

> <standard_relation>
=

> <Publication_ID>
nan

> <predicted_activity_value>
7.795880017344075

> <actual_activity_value>
7.552841968657781

> <Compound>
12

> <standard_units>
nM

> hash
16551182519414113262

$$$$
12_
XXILIB    08252103493D 0   0.00000     0.00000

 42 46  0     1  0            999 V2000
   -6.8888   -0.5644    3.1149 S   0  0  0  0  0  2           0  0  0
  -10.3045   -4.2070    4.4986 S   0  0  2  0  0  6           0  0  0
   -9.1012   -8.1896    1.5783 F   0  0  0  0  0  1           0  0  0
  -11.5277   -3.4448    4.6599 O   0  0  0  0  0  2           0  0  0
   -9.8526   -5.1033    5.5459 O   0  0  0  0  0  2           0  0  0
    1.3663   -0.0000    0.0000 O   0  0  0  0  0  2           0  0  0
    0.2150   -0.0040    2.3369 O   0  0  0  0  0  2           0  0  0
    4.6360   -5.8315   -5.3810 O   0  0  0  0  0  2           0  0  0
   -6.8594   -1.2913    0.6484 N   0  0  0  0  0  3           0  0  0
   -4.9297   -0.0274   -1.0290 N   0  0  0  0  0  3           0  0  0
   -2.8681    0.0032   -2.2504 N   0  0  0  0  0  3           0  0  0
   -9.0346   -3.1531    4.0720 N   0  0  0  0  0  3           0  0  0
   -4.9574   -0.0282    1.3548 N   0  0  0  0  0  3           0  0  0
    3.9895   -1.1211   -3.3670 N   0  0  1  0  0  3           0  0  0
   -6.1549   -0.6302    1.5474 C   0  0  0  0  0  4           0  0  0
   -8.2126   -1.4866    2.5451 C   0  0  0  0  0  4           0  0  0
  -10.4578   -5.1582    3.0217 C   0  0  0  0  0  4           0  0  0
   -9.8133   -7.0627    1.7158 C   0  0  0  0  0  4           0  0  0
    0.0000    0.0000    0.0000 C   0  0  0  0  0  4           0  0  0
   -0.6183    0.0000    1.2539 C   0  0  0  0  0  4           0  0  0
   -4.2048   -0.0171   -2.1556 C   0  0  0  0  0  4           0  0  0
   -4.2418    0.0017    0.1400 C   0  0  0  0  0  4           0  0  0
   -2.1835    0.0057   -1.0994 C   0  0  0  0  0  4           0  0  0
   -8.0217   -1.7765    1.2115 C   0  0  0  0  0  4           0  0  0
   -2.8217    0.0002    0.1558 C   0  0  0  0  0  4           0  0  0
   -9.7045   -6.3245    2.8905 C   0  0  0  0  0  4           0  0  0
  -11.2973   -4.7257    1.9942 C   0  0  0  0  0  4           0  0  0
  -10.6490   -6.6514    0.6812 C   0  0  0  0  0  4           0  0  0
   -0.7915    0.0082   -1.1551 C   0  0  0  0  0  4           0  0  0
   -2.0168   -0.0093    1.3250 C   0  0  0  0  0  4           0  0  0
  -11.3908   -5.4795    0.8229 C   0  0  0  0  0  4           0  0  0
    1.9791    0.0000   -1.2891 C   0  0  0  0  0  4           0  0  0
    4.3754   -4.5608   -5.9639 C   0  0  0  0  0  4           0  0  0
   -0.4342   -0.0039    3.6055 C   0  0  0  0  0  4           0  0  0
   -9.3411   -1.8597    3.4353 C   0  0  0  0  0  4           0  0  0
    4.2274    0.0000   -2.4549 C   0  0  0  0  0  4           0  0  0
    4.7787   -0.9463   -4.5960 C   0  0  0  0  0  4           0  0  0
    4.3002   -2.4127   -2.7332 C   0  0  0  0  0  4           0  0  0
    4.7582   -3.4431   -5.0032 C   0  0  1  0  0  4           0  0  0
    3.4927    0.0000   -1.1154 C   0  0  0  0  0  4           0  0  0
    4.4877   -2.0579   -5.6058 C   0  0  0  0  0  4           0  0  0
    4.0059   -3.5823   -3.6761 C   0  0  0  0  0  4           0  0  0
  1 15  1  0     0  0
  1 16  1  0     0  0
  2  4  2  0     0  0
  2  5  2  0     0  0
  2 12  1  0     0  0
  2 17  1  0     0  0
  3 18  1  0     0  0
  6 19  1  0     0  0
  6 32  1  0     0  0
  7 20  1  0     0  0
  7 34  1  0     0  0
  8 33  1  0     0  0
  9 15  2  0     0  0
  9 24  1  0     0  0
 10 21  1  0     0  0
 10 22  2  0     0  0
 11 21  2  0     0  0
 11 23  1  0     0  0
 12 35  1  0     0  0
 13 15  1  0     0  0
 13 22  1  0     0  0
 14 36  1  0     0  0
 14 37  1  0     0  0
 14 38  1  0     0  0
 16 24  2  0     0  0
 16 35  1  0     0  0
 17 26  1  0     0  0
 17 27  2  0     0  0
 18 26  2  0     0  0
 18 28  1  0     0  0
 19 20  1  0     0  0
 19 29  2  0     0  0
 20 30  2  0     0  0
 22 25  1  0     0  0
 23 25  2  0     0  0
 23 29  1  0     0  0
 25 30  1  0     0  0
 27 31  1  0     0  0
 28 31  2  0     0  0
 32 40  1  0     0  0
 33 39  1  0     0  0
 36 40  1  0     0  0
 37 41  1  0     0  0
 38 42  1  0     0  0
 39 41  1  0     0  0
 39 42  1  0     0  0
M  END
> <standard_type>
pIC50

> <# Confs.>
25

> <canonical_smiles>
OCC1CCN(CCCOC2=CC(N=CN=C3NC4=NC=C(CNS(=O)(C5=CC=CC(F)=C5)=O)S4)=C3C=C2OC)CC1

> <standard_relation>
=

> <Publication_ID>
nan

> <predicted_activity_value>
7.795880017344075

> <actual_activity_value>
7.552841968657781

> <Compound>
12

> <standard_units>
nM

> hash
16551182519414113262

$$$$
12_
XXILIB    08252103493D 0   0.00000     0.00000

 42 46  0     1  0            999 V2000
   -6.9270    0.3445    3.1148 S   0  0  0  0  0  2           0  0  0
  -11.8533    0.2028    4.2542 S   0  0  2  0  0  6           0  0  0
  -14.1765    4.2397    2.2187 F   0  0  0  0  0  1           0  0  0
  -11.7134    1.1058    5.3804 O   0  0  0  0  0  2           0  0  0
  -12.2852   -1.1670    4.4587 O   0  0  0  0  0  2           0  0  0
    1.3663   -0.0000    0.0000 O   0  0  0  0  0  2           0  0  0
    0.2150   -0.0040    2.3369 O   0  0  0  0  0  2           0  0  0
    4.6360   -5.8315   -5.3810 O   0  0  0  0  0  2           0  0  0
   -6.9609    1.0655    0.6466 N   0  0  0  0  0  3           0  0  0
   -4.9297   -0.0274   -1.0290 N   0  0  0  0  0  3           0  0  0
   -2.8681    0.0032   -2.2504 N   0  0  0  0  0  3           0  0  0
  -10.4129    0.2095    3.3428 N   0  0  0  0  0  3           0  0  0
   -4.9574   -0.0282    1.3548 N   0  0  0  0  0  3           0  0  0
    3.9895   -1.1211   -3.3670 N   0  0  1  0  0  3           0  0  0
   -6.2012    0.4712    1.5473 C   0  0  0  0  0  4           0  0  0
   -8.3382    1.1192    2.5352 C   0  0  0  0  0  4           0  0  0
  -12.9737    0.9427    3.1111 C   0  0  0  0  0  4           0  0  0
  -14.0250    2.9082    2.2283 C   0  0  0  0  0  4           0  0  0
    0.0000    0.0000    0.0000 C   0  0  0  0  0  4           0  0  0
   -0.6183    0.0000    1.2539 C   0  0  0  0  0  4           0  0  0
   -4.2048   -0.0171   -2.1556 C   0  0  0  0  0  4           0  0  0
   -4.2418    0.0017    0.1400 C   0  0  0  0  0  4           0  0  0
   -2.1835    0.0057   -1.0994 C   0  0  0  0  0  4           0  0  0
   -8.1690    1.4311    1.2037 C   0  0  0  0  0  4           0  0  0
   -2.8217    0.0002    0.1558 C   0  0  0  0  0  4           0  0  0
  -13.1258    2.3289    3.1185 C   0  0  0  0  0  4           0  0  0
  -13.7147    0.1432    2.2396 C   0  0  0  0  0  4           0  0  0
  -14.7697    2.1289    1.3472 C   0  0  0  0  0  4           0  0  0
   -0.7915    0.0082   -1.1551 C   0  0  0  0  0  4           0  0  0
   -2.0168   -0.0093    1.3250 C   0  0  0  0  0  4           0  0  0
  -14.6130    0.7437    1.3557 C   0  0  0  0  0  4           0  0  0
    1.9791    0.0000   -1.2891 C   0  0  0  0  0  4           0  0  0
    4.3754   -4.5608   -5.9639 C   0  0  0  0  0  4           0  0  0
   -0.4342   -0.0039    3.6055 C   0  0  0  0  0  4           0  0  0
   -9.5063    1.3690    3.4175 C   0  0  0  0  0  4           0  0  0
    4.2274    0.0000   -2.4549 C   0  0  0  0  0  4           0  0  0
    4.7787   -0.9463   -4.5960 C   0  0  0  0  0  4           0  0  0
    4.3002   -2.4127   -2.7332 C   0  0  0  0  0  4           0  0  0
    4.7582   -3.4431   -5.0032 C   0  0  1  0  0  4           0  0  0
    3.4927    0.0000   -1.1154 C   0  0  0  0  0  4           0  0  0
    4.4877   -2.0579   -5.6058 C   0  0  0  0  0  4           0  0  0
    4.0059   -3.5823   -3.6761 C   0  0  0  0  0  4           0  0  0
  1 15  1  0     0  0
  1 16  1  0     0  0
  2  4  2  0     0  0
  2  5  2  0     0  0
  2 12  1  0     0  0
  2 17  1  0     0  0
  3 18  1  0     0  0
  6 19  1  0     0  0
  6 32  1  0     0  0
  7 20  1  0     0  0
  7 34  1  0     0  0
  8 33  1  0     0  0
  9 15  2  0     0  0
  9 24  1  0     0  0
 10 21  1  0     0  0
 10 22  2  0     0  0
 11 21  2  0     0  0
 11 23  1  0     0  0
 12 35  1  0     0  0
 13 15  1  0     0  0
 13 22  1  0     0  0
 14 36  1  0     0  0
 14 37  1  0     0  0
 14 38  1  0     0  0
 16 24  2  0     0  0
 16 35  1  0     0  0
 17 26  1  0     0  0
 17 27  2  0     0  0
 18 26  2  0     0  0
 18 28  1  0     0  0
 19 20  1  0     0  0
 19 29  2  0     0  0
 20 30  2  0     0  0
 22 25  1  0     0  0
 23 25  2  0     0  0
 23 29  1  0     0  0
 25 30  1  0     0  0
 27 31  1  0     0  0
 28 31  2  0     0  0
 32 40  1  0     0  0
 33 39  1  0     0  0
 36 40  1  0     0  0
 37 41  1  0     0  0
 38 42  1  0     0  0
 39 41  1  0     0  0
 39 42  1  0     0  0
M  END
> <standard_type>
pIC50

> <# Confs.>
25

> <canonical_smiles>
OCC1CCN(CCCOC2=CC(N=CN=C3NC4=NC=C(CNS(=O)(C5=CC=CC(F)=C5)=O)S4)=C3C=C2OC)CC1

> <standard_relation>
=

> <Publication_ID>
nan

> <predicted_activity_value>
7.795880017344075

> <actual_activity_value>
7.552841968657781

> <Compound>
12

> <standard_units>
nM

> hash
16551182519414113262

$$$$
12_
XXILIB    08252103493D 0   0.00000     0.00000

 42 46  0     1  0            999 V2000
   -6.9270    0.3445    3.1148 S   0  0  0  0  0  2           0  0  0
  -10.0060    2.9659    5.6013 S   0  0  2  0  0  6           0  0  0
   -7.4063   -0.4841    8.2801 F   0  0  0  0  0  1           0  0  0
  -11.0907    2.0319    5.8349 O   0  0  0  0  0  2           0  0  0
  -10.2087    4.3903    5.7874 O   0  0  0  0  0  2           0  0  0
    1.3663    0.0000   -0.0000 O   0  0  0  0  0  2           0  0  0
    0.2150   -0.0040    2.3369 O   0  0  0  0  0  2           0  0  0
    1.9249   -7.9869   -3.0904 O   0  0  0  0  0  2           0  0  0
   -6.9609    1.0655    0.6466 N   0  0  0  0  0  3           0  0  0
   -4.9297   -0.0274   -1.0290 N   0  0  0  0  0  3           0  0  0
   -2.8681    0.0032   -2.2504 N   0  0  0  0  0  3           0  0  0
   -9.3448    2.6880    4.0550 N   0  0  0  0  0  3           0  0  0
   -4.9574   -0.0282    1.3548 N   0  0  0  0  0  3           0  0  0
    3.3715   -3.0712   -2.4540 N   0  0  1  0  0  3           0  0  0
   -6.2012    0.4712    1.5473 C   0  0  0  0  0  4           0  0  0
   -8.3382    1.1192    2.5352 C   0  0  0  0  0  4           0  0  0
   -8.6569    2.4874    6.6310 C   0  0  0  0  0  4           0  0  0
   -7.5108    0.7896    7.8767 C   0  0  0  0  0  4           0  0  0
    0.0000    0.0000    0.0000 C   0  0  0  0  0  4           0  0  0
   -0.6183    0.0000    1.2539 C   0  0  0  0  0  4           0  0  0
   -4.2048   -0.0171   -2.1556 C   0  0  0  0  0  4           0  0  0
   -4.2418    0.0017    0.1400 C   0  0  0  0  0  4           0  0  0
   -2.1835    0.0057   -1.0994 C   0  0  0  0  0  4           0  0  0
   -8.1690    1.4311    1.2037 C   0  0  0  0  0  4           0  0  0
   -2.8217    0.0002    0.1558 C   0  0  0  0  0  4           0  0  0
   -8.5661    1.1599    7.0485 C   0  0  0  0  0  4           0  0  0
   -7.7189    3.4356    7.0418 C   0  0  0  0  0  4           0  0  0
   -6.5617    1.7189    8.2934 C   0  0  0  0  0  4           0  0  0
   -0.7915    0.0082   -1.1551 C   0  0  0  0  0  4           0  0  0
   -2.0168   -0.0093    1.3250 C   0  0  0  0  0  4           0  0  0
   -6.6688    3.0442    7.8744 C   0  0  0  0  0  4           0  0  0
    1.9791   -0.6445   -1.1164 C   0  0  0  0  0  4           0  0  0
    2.2969   -6.9646   -4.0065 C   0  0  0  0  0  4           0  0  0
   -0.4342   -0.0039    3.6055 C   0  0  0  0  0  4           0  0  0
   -9.5063    1.3690    3.4175 C   0  0  0  0  0  4           0  0  0
    4.0423   -1.9340   -1.8197 C   0  0  0  0  0  4           0  0  0
    4.2173   -3.6212   -3.5245 C   0  0  0  0  0  4           0  0  0
    3.0320   -4.1167   -1.4753 C   0  0  0  0  0  4           0  0  0
    3.0926   -5.8762   -3.2989 C   0  0  1  0  0  4           0  0  0
    3.3182   -1.2234   -0.6774 C   0  0  0  0  0  4           0  0  0
    3.5086   -4.7576   -4.2637 C   0  0  0  0  0  4           0  0  0
    2.2907   -5.2813   -2.1372 C   0  0  0  0  0  4           0  0  0
  1 15  1  0     0  0
  1 16  1  0     0  0
  2  4  2  0     0  0
  2  5  2  0     0  0
  2 12  1  0     0  0
  2 17  1  0     0  0
  3 18  1  0     0  0
  6 19  1  0     0  0
  6 32  1  0     0  0
  7 20  1  0     0  0
  7 34  1  0     0  0
  8 33  1  0     0  0
  9 15  2  0     0  0
  9 24  1  0     0  0
 10 21  1  0     0  0
 10 22  2  0     0  0
 11 21  2  0     0  0
 11 23  1  0     0  0
 12 35  1  0     0  0
 13 15  1  0     0  0
 13 22  1  0     0  0
 14 36  1  0     0  0
 14 37  1  0     0  0
 14 38  1  0     0  0
 16 24  2  0     0  0
 16 35  1  0     0  0
 17 26  1  0     0  0
 17 27  2  0     0  0
 18 26  2  0     0  0
 18 28  1  0     0  0
 19 20  1  0     0  0
 19 29  2  0     0  0
 20 30  2  0     0  0
 22 25  1  0     0  0
 23 25  2  0     0  0
 23 29  1  0     0  0
 25 30  1  0     0  0
 27 31  1  0     0  0
 28 31  2  0     0  0
 32 40  1  0     0  0
 33 39  1  0     0  0
 36 40  1  0     0  0
 37 41  1  0     0  0
 38 42  1  0     0  0
 39 41  1  0     0  0
 39 42  1  0     0  0
M  END
> <standard_type>
pIC50

> <# Confs.>
25

> <canonical_smiles>
OCC1CCN(CCCOC2=CC(N=CN=C3NC4=NC=C(CNS(=O)(C5=CC=CC(F)=C5)=O)S4)=C3C=C2OC)CC1

> <standard_relation>
=

> <Publication_ID>
nan

> <predicted_activity_value>
7.795880017344075

> <actual_activity_value>
7.552841968657781

> <Compound>
12

> <standard_units>
nM

> hash
16551182519414113262

$$$$
12_
XXILIB    08252103493D 0   0.00000     0.00000

 42 46  0     1  0            999 V2000
   -6.8888   -0.5644    3.1149 S   0  0  0  0  0  2           0  0  0
  -10.3045   -4.2070    4.4986 S   0  0  2  0  0  6           0  0  0
  -12.2884   -5.0680   -0.1014 F   0  0  0  0  0  1           0  0  0
  -11.5277   -3.4448    4.6599 O   0  0  0  0  0  2           0  0  0
   -9.8526   -5.1033    5.5459 O   0  0  0  0  0  2           0  0  0
    1.3663    0.0000    0.0000 O   0  0  0  0  0  2           0  0  0
    0.2150   -0.0040    2.3369 O   0  0  0  0  0  2           0  0  0
    5.0174    4.4515   -7.1767 O   0  0  0  0  0  2           0  0  0
   -6.8594   -1.2913    0.6484 N   0  0  0  0  0  3           0  0  0
   -4.9297   -0.0274   -1.0290 N   0  0  0  0  0  3           0  0  0
   -2.8681    0.0032   -2.2504 N   0  0  0  0  0  3           0  0  0
   -9.0346   -3.1531    4.0720 N   0  0  0  0  0  3           0  0  0
   -4.9574   -0.0282    1.3548 N   0  0  0  0  0  3           0  0  0
    3.9895    1.1211   -3.3670 N   0  0  1  0  0  3           0  0  0
   -6.1549   -0.6302    1.5474 C   0  0  0  0  0  4           0  0  0
   -8.2126   -1.4866    2.5451 C   0  0  0  0  0  4           0  0  0
  -10.4578   -5.1582    3.0217 C   0  0  0  0  0  4           0  0  0
  -11.4613   -5.4816    0.8686 C   0  0  0  0  0  4           0  0  0
    0.0000    0.0000    0.0000 C   0  0  0  0  0  4           0  0  0
   -0.6183    0.0000    1.2539 C   0  0  0  0  0  4           0  0  0
   -4.2048   -0.0171   -2.1556 C   0  0  0  0  0  4           0  0  0
   -4.2418    0.0017    0.1400 C   0  0  0  0  0  4           0  0  0
   -2.1835    0.0057   -1.0994 C   0  0  0  0  0  4           0  0  0
   -8.0217   -1.7765    1.2115 C   0  0  0  0  0  4           0  0  0
   -2.8217    0.0002    0.1558 C   0  0  0  0  0  4           0  0  0
  -11.3281   -4.7186    2.0248 C   0  0  0  0  0  4           0  0  0
   -9.7400   -6.3462    2.8763 C   0  0  0  0  0  4           0  0  0
  -10.7503   -6.6668    0.7017 C   0  0  0  0  0  4           0  0  0
   -0.7915    0.0082   -1.1551 C   0  0  0  0  0  4           0  0  0
   -2.0168   -0.0093    1.3250 C   0  0  0  0  0  4           0  0  0
   -9.8892   -7.0983    1.7096 C   0  0  0  0  0  4           0  0  0
    1.9791    0.0000   -1.2891 C   0  0  0  0  0  4           0  0  0
    4.3662    4.5941   -5.9205 C   0  0  0  0  0  4           0  0  0
   -0.4342   -0.0039    3.6055 C   0  0  0  0  0  4           0  0  0
   -9.3411   -1.8597    3.4353 C   0  0  0  0  0  4           0  0  0
    4.2274    0.0000   -2.4549 C   0  0  0  0  0  4           0  0  0
    4.3812    2.3848   -2.7240 C   0  0  0  0  0  4           0  0  0
    4.7054    0.9464   -4.6411 C   0  0  0  0  0  4           0  0  0
    4.7543    3.4572   -4.9849 C   0  0  1  0  0  4           0  0  0
    3.4927   -0.0000   -1.1154 C   0  0  0  0  0  4           0  0  0
    4.0658    3.5846   -3.6192 C   0  0  0  0  0  4           0  0  0
    4.4159    2.0988   -5.6066 C   0  0  0  0  0  4           0  0  0
  1 15  1  0     0  0
  1 16  1  0     0  0
  2  4  2  0     0  0
  2  5  2  0     0  0
  2 12  1  0     0  0
  2 17  1  0     0  0
  3 18  1  0     0  0
  6 19  1  0     0  0
  6 32  1  0     0  0
  7 20  1  0     0  0
  7 34  1  0     0  0
  8 33  1  0     0  0
  9 15  2  0     0  0
  9 24  1  0     0  0
 10 21  1  0     0  0
 10 22  2  0     0  0
 11 21  2  0     0  0
 11 23  1  0     0  0
 12 35  1  0     0  0
 13 15  1  0     0  0
 13 22  1  0     0  0
 14 36  1  0     0  0
 14 37  1  0     0  0
 14 38  1  0     0  0
 16 24  2  0     0  0
 16 35  1  0     0  0
 17 26  1  0     0  0
 17 27  2  0     0  0
 18 26  2  0     0  0
 18 28  1  0     0  0
 19 20  1  0     0  0
 19 29  2  0     0  0
 20 30  2  0     0  0
 22 25  1  0     0  0
 23 25  2  0     0  0
 23 29  1  0     0  0
 25 30  1  0     0  0
 27 31  1  0     0  0
 28 31  2  0     0  0
 32 40  1  0     0  0
 33 39  1  0     0  0
 36 40  1  0     0  0
 37 41  1  0     0  0
 38 42  1  0     0  0
 39 41  1  0     0  0
 39 42  1  0     0  0
M  END
> <standard_type>
pIC50

> <# Confs.>
25

> <canonical_smiles>
OCC1CCN(CCCOC2=CC(N=CN=C3NC4=NC=C(CNS(=O)(C5=CC=CC(F)=C5)=O)S4)=C3C=C2OC)CC1

> <standard_relation>
=

> <Publication_ID>
nan

> <predicted_activity_value>
7.795880017344075

> <actual_activity_value>
7.552841968657781

> <Compound>
12

> <standard_units>
nM

> hash
16551182519414113262

$$$$
12_
XXILIB    08252103493D 0   0.00000     0.00000

 42 46  0     1  0            999 V2000
   -6.8888   -0.5644    3.1149 S   0  0  0  0  0  2           0  0  0
  -11.3554   -0.4966    4.7212 S   0  0  2  0  0  6           0  0  0
   -7.8003    0.8837    8.0817 F   0  0  0  0  0  1           0  0  0
  -11.4010   -1.6783    5.5607 O   0  0  0  0  0  2           0  0  0
  -12.5818    0.1436    4.2849 O   0  0  0  0  0  2           0  0  0
    1.3663    0.0000   -0.0000 O   0  0  0  0  0  2           0  0  0
    0.2150   -0.0040    2.3369 O   0  0  0  0  0  2           0  0  0
    1.9249   -7.9869   -3.0904 O   0  0  0  0  0  2           0  0  0
   -6.8594   -1.2913    0.6484 N   0  0  0  0  0  3           0  0  0
   -4.9297   -0.0274   -1.0290 N   0  0  0  0  0  3           0  0  0
   -2.8681    0.0032   -2.2504 N   0  0  0  0  0  3           0  0  0
  -10.3674   -0.8042    3.3666 N   0  0  0  0  0  3           0  0  0
   -4.9574   -0.0282    1.3548 N   0  0  0  0  0  3           0  0  0
    3.3715   -3.0712   -2.4540 N   0  0  1  0  0  3           0  0  0
   -6.1549   -0.6302    1.5474 C   0  0  0  0  0  4           0  0  0
   -8.2126   -1.4866    2.5451 C   0  0  0  0  0  4           0  0  0
  -10.3967    0.7208    5.5626 C   0  0  0  0  0  4           0  0  0
   -8.7138    1.2688    7.1799 C   0  0  0  0  0  4           0  0  0
    0.0000    0.0000    0.0000 C   0  0  0  0  0  4           0  0  0
   -0.6183    0.0000    1.2539 C   0  0  0  0  0  4           0  0  0
   -4.2048   -0.0171   -2.1556 C   0  0  0  0  0  4           0  0  0
   -4.2418    0.0017    0.1400 C   0  0  0  0  0  4           0  0  0
   -2.1835    0.0057   -1.0994 C   0  0  0  0  0  4           0  0  0
   -8.0217   -1.7765    1.2115 C   0  0  0  0  0  4           0  0  0
   -2.8217    0.0002    0.1558 C   0  0  0  0  0  4           0  0  0
   -9.4553    0.3047    6.5036 C   0  0  0  0  0  4           0  0  0
  -10.6065    2.0767    5.3073 C   0  0  0  0  0  4           0  0  0
   -8.9040    2.6261    6.9360 C   0  0  0  0  0  4           0  0  0
   -0.7915    0.0082   -1.1551 C   0  0  0  0  0  4           0  0  0
   -2.0168   -0.0093    1.3250 C   0  0  0  0  0  4           0  0  0
   -9.8537    3.0283    5.9979 C   0  0  0  0  0  4           0  0  0
    1.9791   -0.6445   -1.1164 C   0  0  0  0  0  4           0  0  0
    2.2969   -6.9646   -4.0065 C   0  0  0  0  0  4           0  0  0
   -0.4342   -0.0039    3.6055 C   0  0  0  0  0  4           0  0  0
   -9.3411   -1.8597    3.4353 C   0  0  0  0  0  4           0  0  0
    4.0423   -1.9340   -1.8197 C   0  0  0  0  0  4           0  0  0
    4.2173   -3.6212   -3.5245 C   0  0  0  0  0  4           0  0  0
    3.0320   -4.1167   -1.4753 C   0  0  0  0  0  4           0  0  0
    3.0926   -5.8762   -3.2989 C   0  0  1  0  0  4           0  0  0
    3.3182   -1.2234   -0.6774 C   0  0  0  0  0  4           0  0  0
    3.5086   -4.7576   -4.2637 C   0  0  0  0  0  4           0  0  0
    2.2907   -5.2813   -2.1372 C   0  0  0  0  0  4           0  0  0
  1 15  1  0     0  0
  1 16  1  0     0  0
  2  4  2  0     0  0
  2  5  2  0     0  0
  2 12  1  0     0  0
  2 17  1  0     0  0
  3 18  1  0     0  0
  6 19  1  0     0  0
  6 32  1  0     0  0
  7 20  1  0     0  0
  7 34  1  0     0  0
  8 33  1  0     0  0
  9 15  2  0     0  0
  9 24  1  0     0  0
 10 21  1  0     0  0
 10 22  2  0     0  0
 11 21  2  0     0  0
 11 23  1  0     0  0
 12 35  1  0     0  0
 13 15  1  0     0  0
 13 22  1  0     0  0
 14 36  1  0     0  0
 14 37  1  0     0  0
 14 38  1  0     0  0
 16 24  2  0     0  0
 16 35  1  0     0  0
 17 26  1  0     0  0
 17 27  2  0     0  0
 18 26  2  0     0  0
 18 28  1  0     0  0
 19 20  1  0     0  0
 19 29  2  0     0  0
 20 30  2  0     0  0
 22 25  1  0     0  0
 23 25  2  0     0  0
 23 29  1  0     0  0
 25 30  1  0     0  0
 27 31  1  0     0  0
 28 31  2  0     0  0
 32 40  1  0     0  0
 33 39  1  0     0  0
 36 40  1  0     0  0
 37 41  1  0     0  0
 38 42  1  0     0  0
 39 41  1  0     0  0
 39 42  1  0     0  0
M  END
> <standard_type>
pIC50

> <# Confs.>
25

> <canonical_smiles>
OCC1CCN(CCCOC2=CC(N=CN=C3NC4=NC=C(CNS(=O)(C5=CC=CC(F)=C5)=O)S4)=C3C=C2OC)CC1

> <standard_relation>
=

> <Publication_ID>
nan

> <predicted_activity_value>
7.795880017344075

> <actual_activity_value>
7.552841968657781

> <Compound>
12

> <standard_units>
nM

> hash
16551182519414113262

$$$$
12_
XXILIB    08252103493D 0   0.00000     0.00000

 42 46  0     1  0            999 V2000
   -6.9270    0.3445    3.1148 S   0  0  0  0  0  2           0  0  0
  -12.0887    0.4314    3.5617 S   0  0  2  0  0  6           0  0  0
  -13.0621    3.5336   -0.3454 F   0  0  0  0  0  1           0  0  0
  -12.3173    1.6463    4.3201 O   0  0  0  0  0  2           0  0  0
  -12.6877   -0.8215    3.9812 O   0  0  0  0  0  2           0  0  0
    1.3663   -0.0000    0.0000 O   0  0  0  0  0  2           0  0  0
    0.2150   -0.0040    2.3369 O   0  0  0  0  0  2           0  0  0
    6.8145   -3.4912   -6.3309 O   0  0  0  0  0  2           0  0  0
   -6.9609    1.0655    0.6466 N   0  0  0  0  0  3           0  0  0
   -4.9297   -0.0274   -1.0290 N   0  0  0  0  0  3           0  0  0
   -2.8681    0.0032   -2.2504 N   0  0  0  0  0  3           0  0  0
  -10.4129    0.2095    3.3428 N   0  0  0  0  0  3           0  0  0
   -4.9574   -0.0282    1.3548 N   0  0  0  0  0  3           0  0  0
    3.9895   -1.1211   -3.3670 N   0  0  1  0  0  3           0  0  0
   -6.2012    0.4712    1.5473 C   0  0  0  0  0  4           0  0  0
   -8.3382    1.1192    2.5352 C   0  0  0  0  0  4           0  0  0
  -12.6041    0.7316    1.9024 C   0  0  0  0  0  4           0  0  0
  -13.0470    2.2790    0.1255 C   0  0  0  0  0  4           0  0  0
    0.0000    0.0000    0.0000 C   0  0  0  0  0  4           0  0  0
   -0.6183    0.0000    1.2539 C   0  0  0  0  0  4           0  0  0
   -4.2048   -0.0171   -2.1556 C   0  0  0  0  0  4           0  0  0
   -4.2418    0.0017    0.1400 C   0  0  0  0  0  4           0  0  0
   -2.1835    0.0057   -1.0994 C   0  0  0  0  0  4           0  0  0
   -8.1690    1.4311    1.2037 C   0  0  0  0  0  4           0  0  0
   -2.8217    0.0002    0.1558 C   0  0  0  0  0  4           0  0  0
  -12.6214    2.0434    1.4294 C   0  0  0  0  0  4           0  0  0
  -13.0163   -0.3291    1.0944 C   0  0  0  0  0  4           0  0  0
  -13.4571    1.2344   -0.6984 C   0  0  0  0  0  4           0  0  0
   -0.7915    0.0082   -1.1551 C   0  0  0  0  0  4           0  0  0
   -2.0168   -0.0093    1.3250 C   0  0  0  0  0  4           0  0  0
  -13.4417   -0.0713   -0.2101 C   0  0  0  0  0  4           0  0  0
    1.9791    0.0000   -1.2891 C   0  0  0  0  0  4           0  0  0
    6.2453   -3.6554   -5.0380 C   0  0  0  0  0  4           0  0  0
   -0.4342   -0.0039    3.6055 C   0  0  0  0  0  4           0  0  0
   -9.5063    1.3690    3.4175 C   0  0  0  0  0  4           0  0  0
    4.2274    0.0000   -2.4549 C   0  0  0  0  0  4           0  0  0
    4.3690   -2.4077   -2.7610 C   0  0  0  0  0  4           0  0  0
    4.7085   -0.9054   -4.6324 C   0  0  0  0  0  4           0  0  0
    4.7427   -3.4130   -5.0804 C   0  0  1  0  0  4           0  0  0
    3.4927    0.0000   -1.1154 C   0  0  0  0  0  4           0  0  0
    4.0773   -3.5780   -3.7060 C   0  0  0  0  0  4           0  0  0
    4.4135   -2.0230   -5.6361 C   0  0  0  0  0  4           0  0  0
  1 15  1  0     0  0
  1 16  1  0     0  0
  2  4  2  0     0  0
  2  5  2  0     0  0
  2 12  1  0     0  0
  2 17  1  0     0  0
  3 18  1  0     0  0
  6 19  1  0     0  0
  6 32  1  0     0  0
  7 20  1  0     0  0
  7 34  1  0     0  0
  8 33  1  0     0  0
  9 15  2  0     0  0
  9 24  1  0     0  0
 10 21  1  0     0  0
 10 22  2  0     0  0
 11 21  2  0     0  0
 11 23  1  0     0  0
 12 35  1  0     0  0
 13 15  1  0     0  0
 13 22  1  0     0  0
 14 36  1  0     0  0
 14 37  1  0     0  0
 14 38  1  0     0  0
 16 24  2  0     0  0
 16 35  1  0     0  0
 17 26  1  0     0  0
 17 27  2  0     0  0
 18 26  2  0     0  0
 18 28  1  0     0  0
 19 20  1  0     0  0
 19 29  2  0     0  0
 20 30  2  0     0  0
 22 25  1  0     0  0
 23 25  2  0     0  0
 23 29  1  0     0  0
 25 30  1  0     0  0
 27 31  1  0     0  0
 28 31  2  0     0  0
 32 40  1  0     0  0
 33 39  1  0     0  0
 36 40  1  0     0  0
 37 41  1  0     0  0
 38 42  1  0     0  0
 39 41  1  0     0  0
 39 42  1  0     0  0
M  END
> <standard_type>
pIC50

> <# Confs.>
25

> <canonical_smiles>
OCC1CCN(CCCOC2=CC(N=CN=C3NC4=NC=C(CNS(=O)(C5=CC=CC(F)=C5)=O)S4)=C3C=C2OC)CC1

> <standard_relation>
=

> <Publication_ID>
nan

> <predicted_activity_value>
7.795880017344075

> <actual_activity_value>
7.552841968657781

> <Compound>
12

> <standard_units>
nM

> hash
16551182519414113262

$$$$
12_
XXILIB    08252103493D 0   0.00000     0.00000

 42 46  0     1  0            999 V2000
   -6.9270    0.3445    3.1148 S   0  0  0  0  0  2           0  0  0
  -10.0060    2.9659    5.6013 S   0  0  2  0  0  6           0  0  0
   -5.7359    3.9792    8.1657 F   0  0  0  0  0  1           0  0  0
  -11.0907    2.0319    5.8349 O   0  0  0  0  0  2           0  0  0
  -10.2087    4.3903    5.7874 O   0  0  0  0  0  2           0  0  0
    1.3663   -0.0000    0.0000 O   0  0  0  0  0  2           0  0  0
    0.2150   -0.0040    2.3369 O   0  0  0  0  0  2           0  0  0
    6.8145   -3.4912   -6.3309 O   0  0  0  0  0  2           0  0  0
   -6.9609    1.0655    0.6466 N   0  0  0  0  0  3           0  0  0
   -4.9297   -0.0274   -1.0290 N   0  0  0  0  0  3           0  0  0
   -2.8681    0.0032   -2.2504 N   0  0  0  0  0  3           0  0  0
   -9.3448    2.6880    4.0550 N   0  0  0  0  0  3           0  0  0
   -4.9574   -0.0282    1.3548 N   0  0  0  0  0  3           0  0  0
    3.9895   -1.1211   -3.3670 N   0  0  1  0  0  3           0  0  0
   -6.2012    0.4712    1.5473 C   0  0  0  0  0  4           0  0  0
   -8.3382    1.1192    2.5352 C   0  0  0  0  0  4           0  0  0
   -8.6569    2.4874    6.6310 C   0  0  0  0  0  4           0  0  0
   -6.6431    3.0643    7.7969 C   0  0  0  0  0  4           0  0  0
    0.0000    0.0000    0.0000 C   0  0  0  0  0  4           0  0  0
   -0.6183    0.0000    1.2539 C   0  0  0  0  0  4           0  0  0
   -4.2048   -0.0171   -2.1556 C   0  0  0  0  0  4           0  0  0
   -4.2418    0.0017    0.1400 C   0  0  0  0  0  4           0  0  0
   -2.1835    0.0057   -1.0994 C   0  0  0  0  0  4           0  0  0
   -8.1690    1.4311    1.2037 C   0  0  0  0  0  4           0  0  0
   -2.8217    0.0002    0.1558 C   0  0  0  0  0  4           0  0  0
   -7.7171    3.4492    7.0001 C   0  0  0  0  0  4           0  0  0
   -8.5234    1.1591    7.0380 C   0  0  0  0  0  4           0  0  0
   -6.4946    1.7456    8.2180 C   0  0  0  0  0  4           0  0  0
   -0.7915    0.0082   -1.1551 C   0  0  0  0  0  4           0  0  0
   -2.0168   -0.0093    1.3250 C   0  0  0  0  0  4           0  0  0
   -7.4377    0.7929    7.8354 C   0  0  0  0  0  4           0  0  0
    1.9791    0.0000   -1.2891 C   0  0  0  0  0  4           0  0  0
    6.2453   -3.6554   -5.0380 C   0  0  0  0  0  4           0  0  0
   -0.4342   -0.0039    3.6055 C   0  0  0  0  0  4           0  0  0
   -9.5063    1.3690    3.4175 C   0  0  0  0  0  4           0  0  0
    4.2274    0.0000   -2.4549 C   0  0  0  0  0  4           0  0  0
    4.3690   -2.4077   -2.7610 C   0  0  0  0  0  4           0  0  0
    4.7085   -0.9054   -4.6324 C   0  0  0  0  0  4           0  0  0
    4.7427   -3.4130   -5.0804 C   0  0  1  0  0  4           0  0  0
    3.4927    0.0000   -1.1154 C   0  0  0  0  0  4           0  0  0
    4.0773   -3.5780   -3.7060 C   0  0  0  0  0  4           0  0  0
    4.4135   -2.0230   -5.6361 C   0  0  0  0  0  4           0  0  0
  1 15  1  0     0  0
  1 16  1  0     0  0
  2  4  2  0     0  0
  2  5  2  0     0  0
  2 12  1  0     0  0
  2 17  1  0     0  0
  3 18  1  0     0  0
  6 19  1  0     0  0
  6 32  1  0     0  0
  7 20  1  0     0  0
  7 34  1  0     0  0
  8 33  1  0     0  0
  9 15  2  0     0  0
  9 24  1  0     0  0
 10 21  1  0     0  0
 10 22  2  0     0  0
 11 21  2  0     0  0
 11 23  1  0     0  0
 12 35  1  0     0  0
 13 15  1  0     0  0
 13 22  1  0     0  0
 14 36  1  0     0  0
 14 37  1  0     0  0
 14 38  1  0     0  0
 16 24  2  0     0  0
 16 35  1  0     0  0
 17 26  1  0     0  0
 17 27  2  0     0  0
 18 26  2  0     0  0
 18 28  1  0     0  0
 19 20  1  0     0  0
 19 29  2  0     0  0
 20 30  2  0     0  0
 22 25  1  0     0  0
 23 25  2  0     0  0
 23 29  1  0     0  0
 25 30  1  0     0  0
 27 31  1  0     0  0
 28 31  2  0     0  0
 32 40  1  0     0  0
 33 39  1  0     0  0
 36 40  1  0     0  0
 37 41  1  0     0  0
 38 42  1  0     0  0
 39 41  1  0     0  0
 39 42  1  0     0  0
M  END
> <standard_type>
pIC50

> <# Confs.>
25

> <canonical_smiles>
OCC1CCN(CCCOC2=CC(N=CN=C3NC4=NC=C(CNS(=O)(C5=CC=CC(F)=C5)=O)S4)=C3C=C2OC)CC1

> <standard_relation>
=

> <Publication_ID>
nan

> <predicted_activity_value>
7.795880017344075

> <actual_activity_value>
7.552841968657781

> <Compound>
12

> <standard_units>
nM

> hash
16551182519414113262

$$$$
12_
XXILIB    08252103493D 0   0.00000     0.00000

 42 46  0     1  0            999 V2000
   -6.9270    0.3445    3.1148 S   0  0  0  0  0  2           0  0  0
  -12.0887    0.4314    3.5617 S   0  0  2  0  0  6           0  0  0
  -13.7400   -1.1420   -0.9808 F   0  0  0  0  0  1           0  0  0
  -12.3173    1.6463    4.3201 O   0  0  0  0  0  2           0  0  0
  -12.6877   -0.8215    3.9812 O   0  0  0  0  0  2           0  0  0
    1.3663    0.0000    0.0000 O   0  0  0  0  0  2           0  0  0
    0.2150   -0.0040    2.3369 O   0  0  0  0  0  2           0  0  0
    5.0174    4.4515   -7.1767 O   0  0  0  0  0  2           0  0  0
   -6.9609    1.0655    0.6466 N   0  0  0  0  0  3           0  0  0
   -4.9297   -0.0274   -1.0290 N   0  0  0  0  0  3           0  0  0
   -2.8681    0.0032   -2.2504 N   0  0  0  0  0  3           0  0  0
  -10.4129    0.2095    3.3428 N   0  0  0  0  0  3           0  0  0
   -4.9574   -0.0282    1.3548 N   0  0  0  0  0  3           0  0  0
    3.9895    1.1211   -3.3670 N   0  0  1  0  0  3           0  0  0
   -6.2012    0.4712    1.5473 C   0  0  0  0  0  4           0  0  0
   -8.3382    1.1192    2.5352 C   0  0  0  0  0  4           0  0  0
  -12.6041    0.7316    1.9024 C   0  0  0  0  0  4           0  0  0
  -13.3685   -0.1125   -0.2073 C   0  0  0  0  0  4           0  0  0
    0.0000    0.0000    0.0000 C   0  0  0  0  0  4           0  0  0
   -0.6183    0.0000    1.2539 C   0  0  0  0  0  4           0  0  0
   -4.2048   -0.0171   -2.1556 C   0  0  0  0  0  4           0  0  0
   -4.2418    0.0017    0.1400 C   0  0  0  0  0  4           0  0  0
   -2.1835    0.0057   -1.0994 C   0  0  0  0  0  4           0  0  0
   -8.1690    1.4311    1.2037 C   0  0  0  0  0  4           0  0  0
   -2.8217    0.0002    0.1558 C   0  0  0  0  0  4           0  0  0
  -12.9805   -0.3508    1.1077 C   0  0  0  0  0  4           0  0  0
  -12.6012    2.0308    1.3924 C   0  0  0  0  0  4           0  0  0
  -13.3777    1.1763   -0.7335 C   0  0  0  0  0  4           0  0  0
   -0.7915    0.0082   -1.1551 C   0  0  0  0  0  4           0  0  0
   -2.0168   -0.0093    1.3250 C   0  0  0  0  0  4           0  0  0
  -12.9919    2.2483    0.0699 C   0  0  0  0  0  4           0  0  0
    1.9791    0.0000   -1.2891 C   0  0  0  0  0  4           0  0  0
    4.3662    4.5941   -5.9205 C   0  0  0  0  0  4           0  0  0
   -0.4342   -0.0039    3.6055 C   0  0  0  0  0  4           0  0  0
   -9.5063    1.3690    3.4175 C   0  0  0  0  0  4           0  0  0
    4.2274    0.0000   -2.4549 C   0  0  0  0  0  4           0  0  0
    4.3812    2.3848   -2.7240 C   0  0  0  0  0  4           0  0  0
    4.7054    0.9464   -4.6411 C   0  0  0  0  0  4           0  0  0
    4.7543    3.4572   -4.9849 C   0  0  1  0  0  4           0  0  0
    3.4927   -0.0000   -1.1154 C   0  0  0  0  0  4           0  0  0
    4.0658    3.5846   -3.6192 C   0  0  0  0  0  4           0  0  0
    4.4159    2.0988   -5.6066 C   0  0  0  0  0  4           0  0  0
  1 15  1  0     0  0
  1 16  1  0     0  0
  2  4  2  0     0  0
  2  5  2  0     0  0
  2 12  1  0     0  0
  2 17  1  0     0  0
  3 18  1  0     0  0
  6 19  1  0     0  0
  6 32  1  0     0  0
  7 20  1  0     0  0
  7 34  1  0     0  0
  8 33  1  0     0  0
  9 15  2  0     0  0
  9 24  1  0     0  0
 10 21  1  0     0  0
 10 22  2  0     0  0
 11 21  2  0     0  0
 11 23  1  0     0  0
 12 35  1  0     0  0
 13 15  1  0     0  0
 13 22  1  0     0  0
 14 36  1  0     0  0
 14 37  1  0     0  0
 14 38  1  0     0  0
 16 24  2  0     0  0
 16 35  1  0     0  0
 17 26  1  0     0  0
 17 27  2  0     0  0
 18 26  2  0     0  0
 18 28  1  0     0  0
 19 20  1  0     0  0
 19 29  2  0     0  0
 20 30  2  0     0  0
 22 25  1  0     0  0
 23 25  2  0     0  0
 23 29  1  0     0  0
 25 30  1  0     0  0
 27 31  1  0     0  0
 28 31  2  0     0  0
 32 40  1  0     0  0
 33 39  1  0     0  0
 36 40  1  0     0  0
 37 41  1  0     0  0
 38 42  1  0     0  0
 39 41  1  0     0  0
 39 42  1  0     0  0
M  END
> <standard_type>
pIC50

> <# Confs.>
25

> <canonical_smiles>
OCC1CCN(CCCOC2=CC(N=CN=C3NC4=NC=C(CNS(=O)(C5=CC=CC(F)=C5)=O)S4)=C3C=C2OC)CC1

> <standard_relation>
=

> <Publication_ID>
nan

> <predicted_activity_value>
7.795880017344075

> <actual_activity_value>
7.552841968657781

> <Compound>
12

> <standard_units>
nM

> hash
16551182519414113262

$$$$
12_
XXILIB    08252103493D 0   0.00000     0.00000

 42 46  0     1  0            999 V2000
   -6.9270    0.3445    3.1148 S   0  0  0  0  0  2           0  0  0
  -12.1947    1.8072    3.0317 S   0  0  2  0  0  6           0  0  0
  -10.8768    6.5320    1.6987 F   0  0  0  0  0  1           0  0  0
  -12.1286    2.3817    4.3617 O   0  0  0  0  0  2           0  0  0
  -13.3120    0.9648    2.6489 O   0  0  0  0  0  2           0  0  0
    1.3663   -0.0000    0.0000 O   0  0  0  0  0  2           0  0  0
    0.2150   -0.0040    2.3369 O   0  0  0  0  0  2           0  0  0
    4.6360   -5.8315   -5.3810 O   0  0  0  0  0  2           0  0  0
   -6.9609    1.0655    0.6466 N   0  0  0  0  0  3           0  0  0
   -4.9297   -0.0274   -1.0290 N   0  0  0  0  0  3           0  0  0
   -2.8681    0.0032   -2.2504 N   0  0  0  0  0  3           0  0  0
  -10.7347    0.9949    2.6943 N   0  0  0  0  0  3           0  0  0
   -4.9574   -0.0282    1.3548 N   0  0  0  0  0  3           0  0  0
    3.9895   -1.1211   -3.3670 N   0  0  1  0  0  3           0  0  0
   -6.2012    0.4712    1.5473 C   0  0  0  0  0  4           0  0  0
   -8.3382    1.1192    2.5352 C   0  0  0  0  0  4           0  0  0
  -12.1136    3.1329    1.8718 C   0  0  0  0  0  4           0  0  0
  -11.4623    5.3794    1.3455 C   0  0  0  0  0  4           0  0  0
    0.0000    0.0000    0.0000 C   0  0  0  0  0  4           0  0  0
   -0.6183    0.0000    1.2539 C   0  0  0  0  0  4           0  0  0
   -4.2048   -0.0171   -2.1556 C   0  0  0  0  0  4           0  0  0
   -4.2418    0.0017    0.1400 C   0  0  0  0  0  4           0  0  0
   -2.1835    0.0057   -1.0994 C   0  0  0  0  0  4           0  0  0
   -8.1690    1.4311    1.2037 C   0  0  0  0  0  4           0  0  0
   -2.8217    0.0002    0.1558 C   0  0  0  0  0  4           0  0  0
  -11.5077    4.3285    2.2567 C   0  0  0  0  0  4           0  0  0
  -12.6776    2.9890    0.6033 C   0  0  0  0  0  4           0  0  0
  -12.0142    5.2544    0.0736 C   0  0  0  0  0  4           0  0  0
   -0.7915    0.0082   -1.1551 C   0  0  0  0  0  4           0  0  0
   -2.0168   -0.0093    1.3250 C   0  0  0  0  0  4           0  0  0
  -12.6234    4.0559   -0.2954 C   0  0  0  0  0  4           0  0  0
    1.9791    0.0000   -1.2891 C   0  0  0  0  0  4           0  0  0
    4.3754   -4.5608   -5.9639 C   0  0  0  0  0  4           0  0  0
   -0.4342   -0.0039    3.6055 C   0  0  0  0  0  4           0  0  0
   -9.5063    1.3690    3.4175 C   0  0  0  0  0  4           0  0  0
    4.2274    0.0000   -2.4549 C   0  0  0  0  0  4           0  0  0
    4.7787   -0.9463   -4.5960 C   0  0  0  0  0  4           0  0  0
    4.3002   -2.4127   -2.7332 C   0  0  0  0  0  4           0  0  0
    4.7582   -3.4431   -5.0032 C   0  0  1  0  0  4           0  0  0
    3.4927    0.0000   -1.1154 C   0  0  0  0  0  4           0  0  0
    4.4877   -2.0579   -5.6058 C   0  0  0  0  0  4           0  0  0
    4.0059   -3.5823   -3.6761 C   0  0  0  0  0  4           0  0  0
  1 15  1  0     0  0
  1 16  1  0     0  0
  2  4  2  0     0  0
  2  5  2  0     0  0
  2 12  1  0     0  0
  2 17  1  0     0  0
  3 18  1  0     0  0
  6 19  1  0     0  0
  6 32  1  0     0  0
  7 20  1  0     0  0
  7 34  1  0     0  0
  8 33  1  0     0  0
  9 15  2  0     0  0
  9 24  1  0     0  0
 10 21  1  0     0  0
 10 22  2  0     0  0
 11 21  2  0     0  0
 11 23  1  0     0  0
 12 35  1  0     0  0
 13 15  1  0     0  0
 13 22  1  0     0  0
 14 36  1  0     0  0
 14 37  1  0     0  0
 14 38  1  0     0  0
 16 24  2  0     0  0
 16 35  1  0     0  0
 17 26  1  0     0  0
 17 27  2  0     0  0
 18 26  2  0     0  0
 18 28  1  0     0  0
 19 20  1  0     0  0
 19 29  2  0     0  0
 20 30  2  0     0  0
 22 25  1  0     0  0
 23 25  2  0     0  0
 23 29  1  0     0  0
 25 30  1  0     0  0
 27 31  1  0     0  0
 28 31  2  0     0  0
 32 40  1  0     0  0
 33 39  1  0     0  0
 36 40  1  0     0  0
 37 41  1  0     0  0
 38 42  1  0     0  0
 39 41  1  0     0  0
 39 42  1  0     0  0
M  END
> <standard_type>
pIC50

> <# Confs.>
25

> <canonical_smiles>
OCC1CCN(CCCOC2=CC(N=CN=C3NC4=NC=C(CNS(=O)(C5=CC=CC(F)=C5)=O)S4)=C3C=C2OC)CC1

> <standard_relation>
=

> <Publication_ID>
nan

> <predicted_activity_value>
7.795880017344075

> <actual_activity_value>
7.552841968657781

> <Compound>
12

> <standard_units>
nM

> hash
16551182519414113262

$$$$
12_
XXILIB    08252103493D 0   0.00000     0.00000

 42 46  0     1  0            999 V2000
   -6.8888   -0.5644    3.1149 S   0  0  0  0  0  2           0  0  0
  -10.3045   -4.2070    4.4986 S   0  0  2  0  0  6           0  0  0
  -12.2884   -5.0680   -0.1014 F   0  0  0  0  0  1           0  0  0
  -11.5277   -3.4448    4.6599 O   0  0  0  0  0  2           0  0  0
   -9.8526   -5.1033    5.5459 O   0  0  0  0  0  2           0  0  0
    1.3663   -0.0000    0.0000 O   0  0  0  0  0  2           0  0  0
    0.2150   -0.0040    2.3369 O   0  0  0  0  0  2           0  0  0
    6.8145   -3.4912   -6.3309 O   0  0  0  0  0  2           0  0  0
   -6.8594   -1.2913    0.6484 N   0  0  0  0  0  3           0  0  0
   -4.9297   -0.0274   -1.0290 N   0  0  0  0  0  3           0  0  0
   -2.8681    0.0032   -2.2504 N   0  0  0  0  0  3           0  0  0
   -9.0346   -3.1531    4.0720 N   0  0  0  0  0  3           0  0  0
   -4.9574   -0.0282    1.3548 N   0  0  0  0  0  3           0  0  0
    3.9895   -1.1211   -3.3670 N   0  0  1  0  0  3           0  0  0
   -6.1549   -0.6302    1.5474 C   0  0  0  0  0  4           0  0  0
   -8.2126   -1.4866    2.5451 C   0  0  0  0  0  4           0  0  0
  -10.4578   -5.1582    3.0217 C   0  0  0  0  0  4           0  0  0
  -11.4613   -5.4816    0.8686 C   0  0  0  0  0  4           0  0  0
    0.0000    0.0000    0.0000 C   0  0  0  0  0  4           0  0  0
   -0.6183    0.0000    1.2539 C   0  0  0  0  0  4           0  0  0
   -4.2048   -0.0171   -2.1556 C   0  0  0  0  0  4           0  0  0
   -4.2418    0.0017    0.1400 C   0  0  0  0  0  4           0  0  0
   -2.1835    0.0057   -1.0994 C   0  0  0  0  0  4           0  0  0
   -8.0217   -1.7765    1.2115 C   0  0  0  0  0  4           0  0  0
   -2.8217    0.0002    0.1558 C   0  0  0  0  0  4           0  0  0
  -11.3281   -4.7186    2.0248 C   0  0  0  0  0  4           0  0  0
   -9.7400   -6.3462    2.8763 C   0  0  0  0  0  4           0  0  0
  -10.7503   -6.6668    0.7017 C   0  0  0  0  0  4           0  0  0
   -0.7915    0.0082   -1.1551 C   0  0  0  0  0  4           0  0  0
   -2.0168   -0.0093    1.3250 C   0  0  0  0  0  4           0  0  0
   -9.8892   -7.0983    1.7096 C   0  0  0  0  0  4           0  0  0
    1.9791    0.0000   -1.2891 C   0  0  0  0  0  4           0  0  0
    6.2453   -3.6554   -5.0380 C   0  0  0  0  0  4           0  0  0
   -0.4342   -0.0039    3.6055 C   0  0  0  0  0  4           0  0  0
   -9.3411   -1.8597    3.4353 C   0  0  0  0  0  4           0  0  0
    4.2274    0.0000   -2.4549 C   0  0  0  0  0  4           0  0  0
    4.3690   -2.4077   -2.7610 C   0  0  0  0  0  4           0  0  0
    4.7085   -0.9054   -4.6324 C   0  0  0  0  0  4           0  0  0
    4.7427   -3.4130   -5.0804 C   0  0  1  0  0  4           0  0  0
    3.4927    0.0000   -1.1154 C   0  0  0  0  0  4           0  0  0
    4.0773   -3.5780   -3.7060 C   0  0  0  0  0  4           0  0  0
    4.4135   -2.0230   -5.6361 C   0  0  0  0  0  4           0  0  0
  1 15  1  0     0  0
  1 16  1  0     0  0
  2  4  2  0     0  0
  2  5  2  0     0  0
  2 12  1  0     0  0
  2 17  1  0     0  0
  3 18  1  0     0  0
  6 19  1  0     0  0
  6 32  1  0     0  0
  7 20  1  0     0  0
  7 34  1  0     0  0
  8 33  1  0     0  0
  9 15  2  0     0  0
  9 24  1  0     0  0
 10 21  1  0     0  0
 10 22  2  0     0  0
 11 21  2  0     0  0
 11 23  1  0     0  0
 12 35  1  0     0  0
 13 15  1  0     0  0
 13 22  1  0     0  0
 14 36  1  0     0  0
 14 37  1  0     0  0
 14 38  1  0     0  0
 16 24  2  0     0  0
 16 35  1  0     0  0
 17 26  1  0     0  0
 17 27  2  0     0  0
 18 26  2  0     0  0
 18 28  1  0     0  0
 19 20  1  0     0  0
 19 29  2  0     0  0
 20 30  2  0     0  0
 22 25  1  0     0  0
 23 25  2  0     0  0
 23 29  1  0     0  0
 25 30  1  0     0  0
 27 31  1  0     0  0
 28 31  2  0     0  0
 32 40  1  0     0  0
 33 39  1  0     0  0
 36 40  1  0     0  0
 37 41  1  0     0  0
 38 42  1  0     0  0
 39 41  1  0     0  0
 39 42  1  0     0  0
M  END
> <standard_type>
pIC50

> <# Confs.>
25

> <canonical_smiles>
OCC1CCN(CCCOC2=CC(N=CN=C3NC4=NC=C(CNS(=O)(C5=CC=CC(F)=C5)=O)S4)=C3C=C2OC)CC1

> <standard_relation>
=

> <Publication_ID>
nan

> <predicted_activity_value>
7.795880017344075

> <actual_activity_value>
7.552841968657781

> <Compound>
12

> <standard_units>
nM

> hash
16551182519414113262

$$$$
12_
XXILIB    08252103493D 0   0.00000     0.00000

 42 46  0     1  0            999 V2000
   -6.8888   -0.5644    3.1149 S   0  0  0  0  0  2           0  0  0
  -10.3045   -4.2070    4.4986 S   0  0  2  0  0  6           0  0  0
   -9.1012   -8.1896    1.5783 F   0  0  0  0  0  1           0  0  0
  -11.5277   -3.4448    4.6599 O   0  0  0  0  0  2           0  0  0
   -9.8526   -5.1033    5.5459 O   0  0  0  0  0  2           0  0  0
    1.3663    0.0000    0.0000 O   0  0  0  0  0  2           0  0  0
    0.2150   -0.0040    2.3369 O   0  0  0  0  0  2           0  0  0
    5.0174    4.4515   -7.1767 O   0  0  0  0  0  2           0  0  0
   -6.8594   -1.2913    0.6484 N   0  0  0  0  0  3           0  0  0
   -4.9297   -0.0274   -1.0290 N   0  0  0  0  0  3           0  0  0
   -2.8681    0.0032   -2.2504 N   0  0  0  0  0  3           0  0  0
   -9.0346   -3.1531    4.0720 N   0  0  0  0  0  3           0  0  0
   -4.9574   -0.0282    1.3548 N   0  0  0  0  0  3           0  0  0
    3.9895    1.1211   -3.3670 N   0  0  1  0  0  3           0  0  0
   -6.1549   -0.6302    1.5474 C   0  0  0  0  0  4           0  0  0
   -8.2126   -1.4866    2.5451 C   0  0  0  0  0  4           0  0  0
  -10.4578   -5.1582    3.0217 C   0  0  0  0  0  4           0  0  0
   -9.8133   -7.0627    1.7158 C   0  0  0  0  0  4           0  0  0
    0.0000    0.0000    0.0000 C   0  0  0  0  0  4           0  0  0
   -0.6183    0.0000    1.2539 C   0  0  0  0  0  4           0  0  0
   -4.2048   -0.0171   -2.1556 C   0  0  0  0  0  4           0  0  0
   -4.2418    0.0017    0.1400 C   0  0  0  0  0  4           0  0  0
   -2.1835    0.0057   -1.0994 C   0  0  0  0  0  4           0  0  0
   -8.0217   -1.7765    1.2115 C   0  0  0  0  0  4           0  0  0
   -2.8217    0.0002    0.1558 C   0  0  0  0  0  4           0  0  0
   -9.7045   -6.3245    2.8905 C   0  0  0  0  0  4           0  0  0
  -11.2973   -4.7257    1.9942 C   0  0  0  0  0  4           0  0  0
  -10.6490   -6.6514    0.6812 C   0  0  0  0  0  4           0  0  0
   -0.7915    0.0082   -1.1551 C   0  0  0  0  0  4           0  0  0
   -2.0168   -0.0093    1.3250 C   0  0  0  0  0  4           0  0  0
  -11.3908   -5.4795    0.8229 C   0  0  0  0  0  4           0  0  0
    1.9791    0.0000   -1.2891 C   0  0  0  0  0  4           0  0  0
    4.3662    4.5941   -5.9205 C   0  0  0  0  0  4           0  0  0
   -0.4342   -0.0039    3.6055 C   0  0  0  0  0  4           0  0  0
   -9.3411   -1.8597    3.4353 C   0  0  0  0  0  4           0  0  0
    4.2274    0.0000   -2.4549 C   0  0  0  0  0  4           0  0  0
    4.3812    2.3848   -2.7240 C   0  0  0  0  0  4           0  0  0
    4.7054    0.9464   -4.6411 C   0  0  0  0  0  4           0  0  0
    4.7543    3.4572   -4.9849 C   0  0  1  0  0  4           0  0  0
    3.4927   -0.0000   -1.1154 C   0  0  0  0  0  4           0  0  0
    4.0658    3.5846   -3.6192 C   0  0  0  0  0  4           0  0  0
    4.4159    2.0988   -5.6066 C   0  0  0  0  0  4           0  0  0
  1 15  1  0     0  0
  1 16  1  0     0  0
  2  4  2  0     0  0
  2  5  2  0     0  0
  2 12  1  0     0  0
  2 17  1  0     0  0
  3 18  1  0     0  0
  6 19  1  0     0  0
  6 32  1  0     0  0
  7 20  1  0     0  0
  7 34  1  0     0  0
  8 33  1  0     0  0
  9 15  2  0     0  0
  9 24  1  0     0  0
 10 21  1  0     0  0
 10 22  2  0     0  0
 11 21  2  0     0  0
 11 23  1  0     0  0
 12 35  1  0     0  0
 13 15  1  0     0  0
 13 22  1  0     0  0
 14 36  1  0     0  0
 14 37  1  0     0  0
 14 38  1  0     0  0
 16 24  2  0     0  0
 16 35  1  0     0  0
 17 26  1  0     0  0
 17 27  2  0     0  0
 18 26  2  0     0  0
 18 28  1  0     0  0
 19 20  1  0     0  0
 19 29  2  0     0  0
 20 30  2  0     0  0
 22 25  1  0     0  0
 23 25  2  0     0  0
 23 29  1  0     0  0
 25 30  1  0     0  0
 27 31  1  0     0  0
 28 31  2  0     0  0
 32 40  1  0     0  0
 33 39  1  0     0  0
 36 40  1  0     0  0
 37 41  1  0     0  0
 38 42  1  0     0  0
 39 41  1  0     0  0
 39 42  1  0     0  0
M  END
> <standard_type>
pIC50

> <# Confs.>
25

> <canonical_smiles>
OCC1CCN(CCCOC2=CC(N=CN=C3NC4=NC=C(CNS(=O)(C5=CC=CC(F)=C5)=O)S4)=C3C=C2OC)CC1

> <standard_relation>
=

> <Publication_ID>
nan

> <predicted_activity_value>
7.795880017344075

> <actual_activity_value>
7.552841968657781

> <Compound>
12

> <standard_units>
nM

> hash
16551182519414113262

$$$$
12_
XXILIB    08252103493D 0   0.00000     0.00000

 42 46  0     1  0            999 V2000
   -6.8888   -0.5644    3.1149 S   0  0  0  0  0  2           0  0  0
  -10.1512   -3.8466    5.1571 S   0  0  2  0  0  6           0  0  0
  -14.1196   -4.4487    2.0384 F   0  0  0  0  0  1           0  0  0
  -10.9989   -2.8051    5.7050 O   0  0  0  0  0  2           0  0  0
   -9.4567   -4.7682    6.0362 O   0  0  0  0  0  2           0  0  0
    1.3663   -0.0000    0.0000 O   0  0  0  0  0  2           0  0  0
    0.2150   -0.0040    2.3369 O   0  0  0  0  0  2           0  0  0
    4.6360   -5.8315   -5.3810 O   0  0  0  0  0  2           0  0  0
   -6.8594   -1.2913    0.6484 N   0  0  0  0  0  3           0  0  0
   -4.9297   -0.0274   -1.0290 N   0  0  0  0  0  3           0  0  0
   -2.8681    0.0032   -2.2504 N   0  0  0  0  0  3           0  0  0
   -9.0346   -3.1531    4.0720 N   0  0  0  0  0  3           0  0  0
   -4.9574   -0.0282    1.3548 N   0  0  0  0  0  3           0  0  0
    3.9895   -1.1211   -3.3670 N   0  0  1  0  0  3           0  0  0
   -6.1549   -0.6302    1.5474 C   0  0  0  0  0  4           0  0  0
   -8.2126   -1.4866    2.5451 C   0  0  0  0  0  4           0  0  0
  -11.1329   -4.8102    4.0538 C   0  0  0  0  0  4           0  0  0
  -13.0404   -4.9969    2.6137 C   0  0  0  0  0  4           0  0  0
    0.0000    0.0000    0.0000 C   0  0  0  0  0  4           0  0  0
   -0.6183    0.0000    1.2539 C   0  0  0  0  0  4           0  0  0
   -4.2048   -0.0171   -2.1556 C   0  0  0  0  0  4           0  0  0
   -4.2418    0.0017    0.1400 C   0  0  0  0  0  4           0  0  0
   -2.1835    0.0057   -1.0994 C   0  0  0  0  0  4           0  0  0
   -8.0217   -1.7765    1.2115 C   0  0  0  0  0  4           0  0  0
   -2.8217    0.0002    0.1558 C   0  0  0  0  0  4           0  0  0
  -12.2569   -4.2279    3.4689 C   0  0  0  0  0  4           0  0  0
  -10.8001   -6.1419    3.8018 C   0  0  0  0  0  4           0  0  0
  -12.7228   -6.3254    2.3449 C   0  0  0  0  0  4           0  0  0
   -0.7915    0.0082   -1.1551 C   0  0  0  0  0  4           0  0  0
   -2.0168   -0.0093    1.3250 C   0  0  0  0  0  4           0  0  0
  -11.6003   -6.8970    2.9423 C   0  0  0  0  0  4           0  0  0
    1.9791    0.0000   -1.2891 C   0  0  0  0  0  4           0  0  0
    4.3754   -4.5608   -5.9639 C   0  0  0  0  0  4           0  0  0
   -0.4342   -0.0039    3.6055 C   0  0  0  0  0  4           0  0  0
   -9.3411   -1.8597    3.4353 C   0  0  0  0  0  4           0  0  0
    4.2274    0.0000   -2.4549 C   0  0  0  0  0  4           0  0  0
    4.7787   -0.9463   -4.5960 C   0  0  0  0  0  4           0  0  0
    4.3002   -2.4127   -2.7332 C   0  0  0  0  0  4           0  0  0
    4.7582   -3.4431   -5.0032 C   0  0  1  0  0  4           0  0  0
    3.4927    0.0000   -1.1154 C   0  0  0  0  0  4           0  0  0
    4.4877   -2.0579   -5.6058 C   0  0  0  0  0  4           0  0  0
    4.0059   -3.5823   -3.6761 C   0  0  0  0  0  4           0  0  0
  1 15  1  0     0  0
  1 16  1  0     0  0
  2  4  2  0     0  0
  2  5  2  0     0  0
  2 12  1  0     0  0
  2 17  1  0     0  0
  3 18  1  0     0  0
  6 19  1  0     0  0
  6 32  1  0     0  0
  7 20  1  0     0  0
  7 34  1  0     0  0
  8 33  1  0     0  0
  9 15  2  0     0  0
  9 24  1  0     0  0
 10 21  1  0     0  0
 10 22  2  0     0  0
 11 21  2  0     0  0
 11 23  1  0     0  0
 12 35  1  0     0  0
 13 15  1  0     0  0
 13 22  1  0     0  0
 14 36  1  0     0  0
 14 37  1  0     0  0
 14 38  1  0     0  0
 16 24  2  0     0  0
 16 35  1  0     0  0
 17 26  1  0     0  0
 17 27  2  0     0  0
 18 26  2  0     0  0
 18 28  1  0     0  0
 19 20  1  0     0  0
 19 29  2  0     0  0
 20 30  2  0     0  0
 22 25  1  0     0  0
 23 25  2  0     0  0
 23 29  1  0     0  0
 25 30  1  0     0  0
 27 31  1  0     0  0
 28 31  2  0     0  0
 32 40  1  0     0  0
 33 39  1  0     0  0
 36 40  1  0     0  0
 37 41  1  0     0  0
 38 42  1  0     0  0
 39 41  1  0     0  0
 39 42  1  0     0  0
M  END
> <standard_type>
pIC50

> <# Confs.>
25

> <canonical_smiles>
OCC1CCN(CCCOC2=CC(N=CN=C3NC4=NC=C(CNS(=O)(C5=CC=CC(F)=C5)=O)S4)=C3C=C2OC)CC1

> <standard_relation>
=

> <Publication_ID>
nan

> <predicted_activity_value>
7.795880017344075

> <actual_activity_value>
7.552841968657781

> <Compound>
12

> <standard_units>
nM

> hash
16551182519414113262

$$$$
15_
XXILIB    08252103493D 0   0.00000     0.00000

 34 38  0     1  0            999 V2000
    6.2318   -1.1070    3.5036 F   0  0  0  0  0  1           0  0  0
   -0.3116    0.0000    2.2959 O   0  0  0  0  0  2           0  0  0
    3.5901    0.0140    5.1462 O   0  0  0  0  0  2           0  0  0
    3.3931    0.0019   -0.7454 N   0  0  0  0  0  3           0  0  0
    2.0987    0.0000   -1.1466 N   0  0  0  0  0  3           0  0  0
   -6.4390   -0.0657    0.5075 N   0  0  1  0  0  3           0  0  0
    0.0000    0.0000    0.0000 N   0  0  0  0  0  3           0  0  0
    3.7470    0.0090    2.8269 N   0  0  2  0  0  3           0  0  0
   -9.2925   -0.0159    0.4635 N   0  0  1  0  0  3           0  0  0
    1.3840    0.0000   -0.0000 C   0  0  0  0  0  4           0  0  0
    3.5006    0.0061    0.5950 C   0  0  0  0  0  4           0  0  0
   -5.0666   -0.0447    0.6547 C   0  0  0  0  0  4           0  0  0
    2.2422    0.0013    1.1104 C   0  0  0  0  0  4           0  0  0
    6.2817    0.0918    5.5576 C   0  0  0  0  0  4           0  0  0
   -2.2291   -0.0022    0.9550 C   0  0  0  0  0  4           0  0  0
   -4.2237    0.5099   -0.3262 C   0  0  0  0  0  4           0  0  0
   -4.4333   -0.5755    1.7934 C   0  0  0  0  0  4           0  0  0
    6.5452   -1.0736    6.2897 C   0  0  0  0  0  4           0  0  0
    6.5309    1.3373    6.1515 C   0  0  0  0  0  4           0  0  0
   -2.8291    0.5336   -0.1852 C   0  0  0  0  0  4           0  0  0
   -3.0405   -0.5573    1.9458 C   0  0  0  0  0  4           0  0  0
    7.0359   -0.9943    7.5945 C   0  0  0  0  0  4           0  0  0
    7.0218    1.4147    7.4559 C   0  0  0  0  0  4           0  0  0
    7.2727    0.2493    8.1774 C   0  0  0  0  0  4           0  0  0
    5.7716    0.0089    4.1457 C   0  0  2  0  0  4           0  0  0
   -0.7592    0.0000    1.1511 C   0  0  0  0  0  4           0  0  0
    4.2583    0.0168    4.1132 C   0  0  0  0  0  4           0  0  0
    4.5778    0.0126    1.5794 C   0  0  0  0  0  4           0  0  0
    2.2697    0.0003    2.5765 C   0  0  0  0  0  4           0  0  0
   -7.2030   -1.1534    1.1283 C   0  0  0  0  0  4           0  0  0
   -7.1487    1.1992    0.2877 C   0  0  0  0  0  4           0  0  0
   -8.5810   -1.2989    0.4803 C   0  0  0  0  0  4           0  0  0
   -8.5291    0.9574   -0.3254 C   0  0  0  0  0  4           0  0  0
  -10.6370   -0.1803   -0.0870 C   0  0  0  0  0  4           0  0  0
  1 25  1  0     0  0
  2 26  2  0     0  0
  3 27  2  0     0  0
  4  5  1  0     0  0
  4 11  1  0     0  0
  5 10  2  0     0  0
  6 12  1  0     0  0
  6 30  1  0     0  0
  6 31  1  0     0  0
  7 10  1  0     0  0
  7 26  1  0     0  0
  8 27  1  0     0  0
  8 28  1  0     0  0
  8 29  1  0     0  0
  9 32  1  0     0  0
  9 33  1  0     0  0
  9 34  1  0     0  0
 10 13  1  0     0  0
 11 13  2  0     0  0
 11 28  1  0     0  0
 12 16  2  0     0  0
 12 17  1  0     0  0
 13 29  1  0     0  0
 14 18  2  0     0  0
 14 19  1  0     0  0
 14 25  1  0     0  0
 15 20  2  0     0  0
 15 21  1  0     0  0
 15 26  1  0     0  0
 16 20  1  0     0  0
 17 21  2  0     0  0
 18 22  1  0     0  0
 19 23  2  0     0  0
 22 24  2  0     0  0
 23 24  1  0     0  0
 25 27  1  0     0  0
 30 32  1  0     0  0
 31 33  1  0     0  0
M  END
> <standard_type>
pIC50

> <# Confs.>
25

> <canonical_smiles>
O=C(N1CC(C(NC(C2=CC=C(N3CCN(C)CC3)C=C2)=O)=NN4)=C4C1)[C@H](F)C5=CC=CC=C5

> <standard_relation>
=

> <Publication_ID>
nan

> <predicted_activity_value>
6.292429823902063

> <actual_activity_value>
6.522878745280337

> <Compound>
15

> <standard_units>
nM

> hash
7649752598964339451

$$$$
15_
XXILIB    08252103493D 0   0.00000     0.00000

 34 38  0     1  0            999 V2000
    6.2318   -1.1070    3.5036 F   0  0  0  0  0  1           0  0  0
   -0.3116    0.0000    2.2959 O   0  0  0  0  0  2           0  0  0
    3.5901    0.0140    5.1462 O   0  0  0  0  0  2           0  0  0
    3.3931    0.0019   -0.7454 N   0  0  0  0  0  3           0  0  0
    2.0987    0.0000   -1.1466 N   0  0  0  0  0  3           0  0  0
   -6.4391    0.0492    0.5071 N   0  0  1  0  0  3           0  0  0
    0.0000    0.0000    0.0000 N   0  0  0  0  0  3           0  0  0
    3.7470    0.0090    2.8269 N   0  0  2  0  0  3           0  0  0
   -9.2690    0.3465    0.2834 N   0  0  1  0  0  3           0  0  0
    1.3840    0.0000   -0.0000 C   0  0  0  0  0  4           0  0  0
    3.5006    0.0061    0.5950 C   0  0  0  0  0  4           0  0  0
   -5.0666    0.0337    0.6537 C   0  0  0  0  0  4           0  0  0
    2.2422    0.0013    1.1104 C   0  0  0  0  0  4           0  0  0
    6.2817    0.0918    5.5576 C   0  0  0  0  0  4           0  0  0
   -2.2291   -0.0022    0.9550 C   0  0  0  0  0  4           0  0  0
   -4.2218   -0.5167   -0.3282 C   0  0  0  0  0  4           0  0  0
   -4.4348    0.5675    1.7918 C   0  0  0  0  0  4           0  0  0
    6.5452   -1.0736    6.2897 C   0  0  0  0  0  4           0  0  0
    6.5309    1.3373    6.1515 C   0  0  0  0  0  4           0  0  0
   -2.8273   -0.5380   -0.1862 C   0  0  0  0  0  4           0  0  0
   -3.0421    0.5524    1.9448 C   0  0  0  0  0  4           0  0  0
    7.0359   -0.9943    7.5945 C   0  0  0  0  0  4           0  0  0
    7.0218    1.4147    7.4559 C   0  0  0  0  0  4           0  0  0
    7.2727    0.2493    8.1774 C   0  0  0  0  0  4           0  0  0
    5.7716    0.0089    4.1457 C   0  0  2  0  0  4           0  0  0
   -0.7592    0.0000    1.1511 C   0  0  0  0  0  4           0  0  0
    4.2583    0.0168    4.1132 C   0  0  0  0  0  4           0  0  0
    4.5778    0.0126    1.5794 C   0  0  0  0  0  4           0  0  0
    2.2697    0.0003    2.5765 C   0  0  0  0  0  4           0  0  0
   -7.2818   -0.0111    1.7065 C   0  0  0  0  0  4           0  0  0
   -7.0193    0.6918   -0.6771 C   0  0  0  0  0  4           0  0  0
   -8.6998   -0.4697    1.3614 C   0  0  0  0  0  4           0  0  0
   -8.4481    0.2048   -0.9243 C   0  0  0  0  0  4           0  0  0
  -10.6506   -0.0486    0.0133 C   0  0  0  0  0  4           0  0  0
  1 25  1  0     0  0
  2 26  2  0     0  0
  3 27  2  0     0  0
  4  5  1  0     0  0
  4 11  1  0     0  0
  5 10  2  0     0  0
  6 12  1  0     0  0
  6 30  1  0     0  0
  6 31  1  0     0  0
  7 10  1  0     0  0
  7 26  1  0     0  0
  8 27  1  0     0  0
  8 28  1  0     0  0
  8 29  1  0     0  0
  9 32  1  0     0  0
  9 33  1  0     0  0
  9 34  1  0     0  0
 10 13  1  0     0  0
 11 13  2  0     0  0
 11 28  1  0     0  0
 12 16  2  0     0  0
 12 17  1  0     0  0
 13 29  1  0     0  0
 14 18  2  0     0  0
 14 19  1  0     0  0
 14 25  1  0     0  0
 15 20  2  0     0  0
 15 21  1  0     0  0
 15 26  1  0     0  0
 16 20  1  0     0  0
 17 21  2  0     0  0
 18 22  1  0     0  0
 19 23  2  0     0  0
 22 24  2  0     0  0
 23 24  1  0     0  0
 25 27  1  0     0  0
 30 32  1  0     0  0
 31 33  1  0     0  0
M  END
> <standard_type>
pIC50

> <# Confs.>
25

> <canonical_smiles>
O=C(N1CC(C(NC(C2=CC=C(N3CCN(C)CC3)C=C2)=O)=NN4)=C4C1)[C@H](F)C5=CC=CC=C5

> <standard_relation>
=

> <Publication_ID>
nan

> <predicted_activity_value>
6.292429823902063

> <actual_activity_value>
6.522878745280337

> <Compound>
15

> <standard_units>
nM

> hash
7649752598964339451

$$$$
15_
XXILIB    08252103493D 0   0.00000     0.00000

 34 38  0     1  0            999 V2000
    2.4002    1.1425    5.0130 F   0  0  0  0  0  1           0  0  0
   -0.3116    0.0000    2.2959 O   0  0  0  0  0  2           0  0  0
    5.4534    0.0278    4.4054 O   0  0  0  0  0  2           0  0  0
    3.3931    0.0019   -0.7454 N   0  0  0  0  0  3           0  0  0
    2.0987    0.0000   -1.1466 N   0  0  0  0  0  3           0  0  0
   -6.4391    0.0492    0.5071 N   0  0  1  0  0  3           0  0  0
    0.0000    0.0000    0.0000 N   0  0  0  0  0  3           0  0  0
    3.7470    0.0090    2.8269 N   0  0  2  0  0  3           0  0  0
   -9.2690    0.3465    0.2834 N   0  0  1  0  0  3           0  0  0
    1.3840   -0.0000    0.0000 C   0  0  0  0  0  4           0  0  0
    3.5006    0.0061    0.5950 C   0  0  0  0  0  4           0  0  0
   -5.0666    0.0337    0.6537 C   0  0  0  0  0  4           0  0  0
    2.2422    0.0013    1.1104 C   0  0  0  0  0  4           0  0  0
    3.7790   -0.0344    6.5532 C   0  0  0  0  0  4           0  0  0
   -2.2291   -0.0022    0.9550 C   0  0  0  0  0  4           0  0  0
   -4.2218   -0.5167   -0.3282 C   0  0  0  0  0  4           0  0  0
   -4.4348    0.5675    1.7918 C   0  0  0  0  0  4           0  0  0
    4.0853    1.1397    7.2541 C   0  0  0  0  0  4           0  0  0
    4.0109   -1.2725    7.1692 C   0  0  0  0  0  4           0  0  0
   -2.8273   -0.5380   -0.1862 C   0  0  0  0  0  4           0  0  0
   -3.0421    0.5524    1.9448 C   0  0  0  0  0  4           0  0  0
    4.6246    1.0762    8.5404 C   0  0  0  0  0  4           0  0  0
    4.5498   -1.3341    8.4554 C   0  0  0  0  0  4           0  0  0
    4.8578   -0.1601    9.1399 C   0  0  0  0  0  4           0  0  0
    3.1803    0.0315    5.1756 C   0  0  2  0  0  4           0  0  0
   -0.7592    0.0000    1.1511 C   0  0  0  0  0  4           0  0  0
    4.2583    0.0168    4.1132 C   0  0  0  0  0  4           0  0  0
    4.5778    0.0126    1.5794 C   0  0  0  0  0  4           0  0  0
    2.2697    0.0003    2.5765 C   0  0  0  0  0  4           0  0  0
   -7.2818   -0.0111    1.7065 C   0  0  0  0  0  4           0  0  0
   -7.0193    0.6918   -0.6771 C   0  0  0  0  0  4           0  0  0
   -8.6998   -0.4697    1.3614 C   0  0  0  0  0  4           0  0  0
   -8.4481    0.2048   -0.9243 C   0  0  0  0  0  4           0  0  0
  -10.6506   -0.0486    0.0133 C   0  0  0  0  0  4           0  0  0
  1 25  1  0     0  0
  2 26  2  0     0  0
  3 27  2  0     0  0
  4  5  1  0     0  0
  4 11  1  0     0  0
  5 10  2  0     0  0
  6 12  1  0     0  0
  6 30  1  0     0  0
  6 31  1  0     0  0
  7 10  1  0     0  0
  7 26  1  0     0  0
  8 27  1  0     0  0
  8 28  1  0     0  0
  8 29  1  0     0  0
  9 32  1  0     0  0
  9 33  1  0     0  0
  9 34  1  0     0  0
 10 13  1  0     0  0
 11 13  2  0     0  0
 11 28  1  0     0  0
 12 16  2  0     0  0
 12 17  1  0     0  0
 13 29  1  0     0  0
 14 18  2  0     0  0
 14 19  1  0     0  0
 14 25  1  0     0  0
 15 20  2  0     0  0
 15 21  1  0     0  0
 15 26  1  0     0  0
 16 20  1  0     0  0
 17 21  2  0     0  0
 18 22  1  0     0  0
 19 23  2  0     0  0
 22 24  2  0     0  0
 23 24  1  0     0  0
 25 27  1  0     0  0
 30 32  1  0     0  0
 31 33  1  0     0  0
M  END
> <standard_type>
pIC50

> <# Confs.>
25

> <canonical_smiles>
O=C(N1CC(C(NC(C2=CC=C(N3CCN(C)CC3)C=C2)=O)=NN4)=C4C1)[C@H](F)C5=CC=CC=C5

> <standard_relation>
=

> <Publication_ID>
nan

> <predicted_activity_value>
6.292429823902063

> <actual_activity_value>
6.522878745280337

> <Compound>
15

> <standard_units>
nM

> hash
7649752598964339451

$$$$
15_
XXILIB    08252103493D 0   0.00000     0.00000

 34 38  0     1  0            999 V2000
    2.4002    1.1425    5.0130 F   0  0  0  0  0  1           0  0  0
   -0.3116    0.0000    2.2959 O   0  0  0  0  0  2           0  0  0
    5.4534    0.0278    4.4054 O   0  0  0  0  0  2           0  0  0
    3.3931    0.0019   -0.7454 N   0  0  0  0  0  3           0  0  0
    2.0987    0.0000   -1.1466 N   0  0  0  0  0  3           0  0  0
   -6.4390   -0.0657    0.5075 N   0  0  1  0  0  3           0  0  0
    0.0000    0.0000    0.0000 N   0  0  0  0  0  3           0  0  0
    3.7470    0.0090    2.8269 N   0  0  2  0  0  3           0  0  0
   -9.2925   -0.0159    0.4635 N   0  0  1  0  0  3           0  0  0
    1.3840   -0.0000    0.0000 C   0  0  0  0  0  4           0  0  0
    3.5006    0.0061    0.5950 C   0  0  0  0  0  4           0  0  0
   -5.0666   -0.0447    0.6547 C   0  0  0  0  0  4           0  0  0
    2.2422    0.0013    1.1104 C   0  0  0  0  0  4           0  0  0
    3.7790   -0.0344    6.5532 C   0  0  0  0  0  4           0  0  0
   -2.2291   -0.0022    0.9550 C   0  0  0  0  0  4           0  0  0
   -4.2237    0.5099   -0.3262 C   0  0  0  0  0  4           0  0  0
   -4.4333   -0.5755    1.7934 C   0  0  0  0  0  4           0  0  0
    4.0853    1.1397    7.2541 C   0  0  0  0  0  4           0  0  0
    4.0109   -1.2725    7.1692 C   0  0  0  0  0  4           0  0  0
   -2.8291    0.5336   -0.1852 C   0  0  0  0  0  4           0  0  0
   -3.0405   -0.5573    1.9458 C   0  0  0  0  0  4           0  0  0
    4.6246    1.0762    8.5404 C   0  0  0  0  0  4           0  0  0
    4.5498   -1.3341    8.4554 C   0  0  0  0  0  4           0  0  0
    4.8578   -0.1601    9.1399 C   0  0  0  0  0  4           0  0  0
    3.1803    0.0315    5.1756 C   0  0  2  0  0  4           0  0  0
   -0.7592    0.0000    1.1511 C   0  0  0  0  0  4           0  0  0
    4.2583    0.0168    4.1132 C   0  0  0  0  0  4           0  0  0
    4.5778    0.0126    1.5794 C   0  0  0  0  0  4           0  0  0
    2.2697    0.0003    2.5765 C   0  0  0  0  0  4           0  0  0
   -7.2030   -1.1534    1.1283 C   0  0  0  0  0  4           0  0  0
   -7.1487    1.1992    0.2877 C   0  0  0  0  0  4           0  0  0
   -8.5810   -1.2989    0.4803 C   0  0  0  0  0  4           0  0  0
   -8.5291    0.9574   -0.3254 C   0  0  0  0  0  4           0  0  0
  -10.6370   -0.1803   -0.0870 C   0  0  0  0  0  4           0  0  0
  1 25  1  0     0  0
  2 26  2  0     0  0
  3 27  2  0     0  0
  4  5  1  0     0  0
  4 11  1  0     0  0
  5 10  2  0     0  0
  6 12  1  0     0  0
  6 30  1  0     0  0
  6 31  1  0     0  0
  7 10  1  0     0  0
  7 26  1  0     0  0
  8 27  1  0     0  0
  8 28  1  0     0  0
  8 29  1  0     0  0
  9 32  1  0     0  0
  9 33  1  0     0  0
  9 34  1  0     0  0
 10 13  1  0     0  0
 11 13  2  0     0  0
 11 28  1  0     0  0
 12 16  2  0     0  0
 12 17  1  0     0  0
 13 29  1  0     0  0
 14 18  2  0     0  0
 14 19  1  0     0  0
 14 25  1  0     0  0
 15 20  2  0     0  0
 15 21  1  0     0  0
 15 26  1  0     0  0
 16 20  1  0     0  0
 17 21  2  0     0  0
 18 22  1  0     0  0
 19 23  2  0     0  0
 22 24  2  0     0  0
 23 24  1  0     0  0
 25 27  1  0     0  0
 30 32  1  0     0  0
 31 33  1  0     0  0
M  END
> <standard_type>
pIC50

> <# Confs.>
25

> <canonical_smiles>
O=C(N1CC(C(NC(C2=CC=C(N3CCN(C)CC3)C=C2)=O)=NN4)=C4C1)[C@H](F)C5=CC=CC=C5

> <standard_relation>
=

> <Publication_ID>
nan

> <predicted_activity_value>
6.292429823902063

> <actual_activity_value>
6.522878745280337

> <Compound>
15

> <standard_units>
nM

> hash
7649752598964339451

$$$$
15_
XXILIB    08252103493D 0   0.00000     0.00000

 34 38  0     1  0            999 V2000
    6.2318   -1.1070    3.5036 F   0  0  0  0  0  1           0  0  0
   -0.3116    0.0000    2.2959 O   0  0  0  0  0  2           0  0  0
    3.5901    0.0140    5.1462 O   0  0  0  0  0  2           0  0  0
    3.3931    0.0019   -0.7454 N   0  0  0  0  0  3           0  0  0
    2.0987    0.0000   -1.1466 N   0  0  0  0  0  3           0  0  0
   -6.4391    0.0492    0.5071 N   0  0  1  0  0  3           0  0  0
    0.0000    0.0000    0.0000 N   0  0  0  0  0  3           0  0  0
    3.7470    0.0090    2.8269 N   0  0  2  0  0  3           0  0  0
   -8.9512   -0.6525    1.6270 N   0  0  1  0  0  3           0  0  0
    1.3840    0.0000   -0.0000 C   0  0  0  0  0  4           0  0  0
    3.5006    0.0061    0.5950 C   0  0  0  0  0  4           0  0  0
   -5.0666    0.0337    0.6537 C   0  0  0  0  0  4           0  0  0
    2.2422    0.0013    1.1104 C   0  0  0  0  0  4           0  0  0
    6.2817    0.0918    5.5576 C   0  0  0  0  0  4           0  0  0
   -2.2291   -0.0022    0.9550 C   0  0  0  0  0  4           0  0  0
   -4.2218   -0.5167   -0.3282 C   0  0  0  0  0  4           0  0  0
   -4.4348    0.5675    1.7918 C   0  0  0  0  0  4           0  0  0
    6.5452   -1.0736    6.2897 C   0  0  0  0  0  4           0  0  0
    6.5309    1.3373    6.1515 C   0  0  0  0  0  4           0  0  0
   -2.8273   -0.5380   -0.1862 C   0  0  0  0  0  4           0  0  0
   -3.0421    0.5524    1.9448 C   0  0  0  0  0  4           0  0  0
    7.0359   -0.9943    7.5945 C   0  0  0  0  0  4           0  0  0
    7.0218    1.4147    7.4559 C   0  0  0  0  0  4           0  0  0
    7.2727    0.2493    8.1774 C   0  0  0  0  0  4           0  0  0
    5.7716    0.0089    4.1457 C   0  0  2  0  0  4           0  0  0
   -0.7592    0.0000    1.1511 C   0  0  0  0  0  4           0  0  0
    4.2583    0.0168    4.1132 C   0  0  0  0  0  4           0  0  0
    4.5778    0.0126    1.5794 C   0  0  0  0  0  4           0  0  0
    2.2697    0.0003    2.5765 C   0  0  0  0  0  4           0  0  0
   -7.2787    1.0936    1.0950 C   0  0  0  0  0  4           0  0  0
   -7.1821   -1.0811   -0.0516 C   0  0  0  0  0  4           0  0  0
   -8.1658    0.4657    2.1757 C   0  0  0  0  0  4           0  0  0
   -8.0724   -1.6800    1.0432 C   0  0  0  0  0  4           0  0  0
   -9.8066   -1.2351    2.6602 C   0  0  0  0  0  4           0  0  0
  1 25  1  0     0  0
  2 26  2  0     0  0
  3 27  2  0     0  0
  4  5  1  0     0  0
  4 11  1  0     0  0
  5 10  2  0     0  0
  6 12  1  0     0  0
  6 30  1  0     0  0
  6 31  1  0     0  0
  7 10  1  0     0  0
  7 26  1  0     0  0
  8 27  1  0     0  0
  8 28  1  0     0  0
  8 29  1  0     0  0
  9 32  1  0     0  0
  9 33  1  0     0  0
  9 34  1  0     0  0
 10 13  1  0     0  0
 11 13  2  0     0  0
 11 28  1  0     0  0
 12 16  2  0     0  0
 12 17  1  0     0  0
 13 29  1  0     0  0
 14 18  2  0     0  0
 14 19  1  0     0  0
 14 25  1  0     0  0
 15 20  2  0     0  0
 15 21  1  0     0  0
 15 26  1  0     0  0
 16 20  1  0     0  0
 17 21  2  0     0  0
 18 22  1  0     0  0
 19 23  2  0     0  0
 22 24  2  0     0  0
 23 24  1  0     0  0
 25 27  1  0     0  0
 30 32  1  0     0  0
 31 33  1  0     0  0
M  END
> <standard_type>
pIC50

> <# Confs.>
25

> <canonical_smiles>
O=C(N1CC(C(NC(C2=CC=C(N3CCN(C)CC3)C=C2)=O)=NN4)=C4C1)[C@H](F)C5=CC=CC=C5

> <standard_relation>
=

> <Publication_ID>
nan

> <predicted_activity_value>
6.292429823902063

> <actual_activity_value>
6.522878745280337

> <Compound>
15

> <standard_units>
nM

> hash
7649752598964339451

$$$$
15_
XXILIB    08252103493D 0   0.00000     0.00000

 34 38  0     1  0            999 V2000
    6.2318   -1.1070    3.5036 F   0  0  0  0  0  1           0  0  0
   -0.3116    0.0000    2.2959 O   0  0  0  0  0  2           0  0  0
    3.5901    0.0140    5.1462 O   0  0  0  0  0  2           0  0  0
    3.3931    0.0019   -0.7454 N   0  0  0  0  0  3           0  0  0
    2.0987    0.0000   -1.1466 N   0  0  0  0  0  3           0  0  0
   -6.4390   -0.0657    0.5075 N   0  0  1  0  0  3           0  0  0
    0.0000    0.0000    0.0000 N   0  0  0  0  0  3           0  0  0
    3.7470    0.0090    2.8269 N   0  0  2  0  0  3           0  0  0
   -8.7965   -1.6463    0.4785 N   0  0  1  0  0  3           0  0  0
    1.3840    0.0000   -0.0000 C   0  0  0  0  0  4           0  0  0
    3.5006    0.0061    0.5950 C   0  0  0  0  0  4           0  0  0
   -5.0666   -0.0447    0.6547 C   0  0  0  0  0  4           0  0  0
    2.2422    0.0013    1.1104 C   0  0  0  0  0  4           0  0  0
    6.2817    0.0918    5.5576 C   0  0  0  0  0  4           0  0  0
   -2.2291   -0.0022    0.9550 C   0  0  0  0  0  4           0  0  0
   -4.2237    0.5099   -0.3262 C   0  0  0  0  0  4           0  0  0
   -4.4333   -0.5755    1.7934 C   0  0  0  0  0  4           0  0  0
    6.5452   -1.0736    6.2897 C   0  0  0  0  0  4           0  0  0
    6.5309    1.3373    6.1515 C   0  0  0  0  0  4           0  0  0
   -2.8291    0.5336   -0.1852 C   0  0  0  0  0  4           0  0  0
   -3.0405   -0.5573    1.9458 C   0  0  0  0  0  4           0  0  0
    7.0359   -0.9943    7.5945 C   0  0  0  0  0  4           0  0  0
    7.0218    1.4147    7.4559 C   0  0  0  0  0  4           0  0  0
    7.2727    0.2493    8.1774 C   0  0  0  0  0  4           0  0  0
    5.7716    0.0089    4.1457 C   0  0  2  0  0  4           0  0  0
   -0.7592    0.0000    1.1511 C   0  0  0  0  0  4           0  0  0
    4.2583    0.0168    4.1132 C   0  0  0  0  0  4           0  0  0
    4.5778    0.0126    1.5794 C   0  0  0  0  0  4           0  0  0
    2.2697    0.0003    2.5765 C   0  0  0  0  0  4           0  0  0
   -7.3511   -0.0135    1.6506 C   0  0  0  0  0  4           0  0  0
   -7.0873   -0.3620   -0.7706 C   0  0  0  0  0  4           0  0  0
   -8.1053   -1.3445    1.7432 C   0  0  0  0  0  4           0  0  0
   -7.8470   -1.6876   -0.6465 C   0  0  0  0  0  4           0  0  0
   -9.5267   -2.9092    0.5808 C   0  0  0  0  0  4           0  0  0
  1 25  1  0     0  0
  2 26  2  0     0  0
  3 27  2  0     0  0
  4  5  1  0     0  0
  4 11  1  0     0  0
  5 10  2  0     0  0
  6 12  1  0     0  0
  6 30  1  0     0  0
  6 31  1  0     0  0
  7 10  1  0     0  0
  7 26  1  0     0  0
  8 27  1  0     0  0
  8 28  1  0     0  0
  8 29  1  0     0  0
  9 32  1  0     0  0
  9 33  1  0     0  0
  9 34  1  0     0  0
 10 13  1  0     0  0
 11 13  2  0     0  0
 11 28  1  0     0  0
 12 16  2  0     0  0
 12 17  1  0     0  0
 13 29  1  0     0  0
 14 18  2  0     0  0
 14 19  1  0     0  0
 14 25  1  0     0  0
 15 20  2  0     0  0
 15 21  1  0     0  0
 15 26  1  0     0  0
 16 20  1  0     0  0
 17 21  2  0     0  0
 18 22  1  0     0  0
 19 23  2  0     0  0
 22 24  2  0     0  0
 23 24  1  0     0  0
 25 27  1  0     0  0
 30 32  1  0     0  0
 31 33  1  0     0  0
M  END
> <standard_type>
pIC50

> <# Confs.>
25

> <canonical_smiles>
O=C(N1CC(C(NC(C2=CC=C(N3CCN(C)CC3)C=C2)=O)=NN4)=C4C1)[C@H](F)C5=CC=CC=C5

> <standard_relation>
=

> <Publication_ID>
nan

> <predicted_activity_value>
6.292429823902063

> <actual_activity_value>
6.522878745280337

> <Compound>
15

> <standard_units>
nM

> hash
7649752598964339451

$$$$
15_
XXILIB    08252103493D 0   0.00000     0.00000

 34 38  0     1  0            999 V2000
    2.4002    1.1425    5.0130 F   0  0  0  0  0  1           0  0  0
   -0.3116    0.0000    2.2959 O   0  0  0  0  0  2           0  0  0
    5.4534    0.0278    4.4054 O   0  0  0  0  0  2           0  0  0
    3.3931    0.0019   -0.7454 N   0  0  0  0  0  3           0  0  0
    2.0987    0.0000   -1.1466 N   0  0  0  0  0  3           0  0  0
   -6.4391    0.0492    0.5071 N   0  0  1  0  0  3           0  0  0
    0.0000    0.0000    0.0000 N   0  0  0  0  0  3           0  0  0
    3.7470    0.0090    2.8269 N   0  0  2  0  0  3           0  0  0
   -8.9512   -0.6525    1.6270 N   0  0  1  0  0  3           0  0  0
    1.3840   -0.0000    0.0000 C   0  0  0  0  0  4           0  0  0
    3.5006    0.0061    0.5950 C   0  0  0  0  0  4           0  0  0
   -5.0666    0.0337    0.6537 C   0  0  0  0  0  4           0  0  0
    2.2422    0.0013    1.1104 C   0  0  0  0  0  4           0  0  0
    3.7790   -0.0344    6.5532 C   0  0  0  0  0  4           0  0  0
   -2.2291   -0.0022    0.9550 C   0  0  0  0  0  4           0  0  0
   -4.2218   -0.5167   -0.3282 C   0  0  0  0  0  4           0  0  0
   -4.4348    0.5675    1.7918 C   0  0  0  0  0  4           0  0  0
    4.0853    1.1397    7.2541 C   0  0  0  0  0  4           0  0  0
    4.0109   -1.2725    7.1692 C   0  0  0  0  0  4           0  0  0
   -2.8273   -0.5380   -0.1862 C   0  0  0  0  0  4           0  0  0
   -3.0421    0.5524    1.9448 C   0  0  0  0  0  4           0  0  0
    4.6246    1.0762    8.5404 C   0  0  0  0  0  4           0  0  0
    4.5498   -1.3341    8.4554 C   0  0  0  0  0  4           0  0  0
    4.8578   -0.1601    9.1399 C   0  0  0  0  0  4           0  0  0
    3.1803    0.0315    5.1756 C   0  0  2  0  0  4           0  0  0
   -0.7592    0.0000    1.1511 C   0  0  0  0  0  4           0  0  0
    4.2583    0.0168    4.1132 C   0  0  0  0  0  4           0  0  0
    4.5778    0.0126    1.5794 C   0  0  0  0  0  4           0  0  0
    2.2697    0.0003    2.5765 C   0  0  0  0  0  4           0  0  0
   -7.2787    1.0936    1.0950 C   0  0  0  0  0  4           0  0  0
   -7.1821   -1.0811   -0.0516 C   0  0  0  0  0  4           0  0  0
   -8.1658    0.4657    2.1757 C   0  0  0  0  0  4           0  0  0
   -8.0724   -1.6800    1.0432 C   0  0  0  0  0  4           0  0  0
   -9.8066   -1.2351    2.6602 C   0  0  0  0  0  4           0  0  0
  1 25  1  0     0  0
  2 26  2  0     0  0
  3 27  2  0     0  0
  4  5  1  0     0  0
  4 11  1  0     0  0
  5 10  2  0     0  0
  6 12  1  0     0  0
  6 30  1  0     0  0
  6 31  1  0     0  0
  7 10  1  0     0  0
  7 26  1  0     0  0
  8 27  1  0     0  0
  8 28  1  0     0  0
  8 29  1  0     0  0
  9 32  1  0     0  0
  9 33  1  0     0  0
  9 34  1  0     0  0
 10 13  1  0     0  0
 11 13  2  0     0  0
 11 28  1  0     0  0
 12 16  2  0     0  0
 12 17  1  0     0  0
 13 29  1  0     0  0
 14 18  2  0     0  0
 14 19  1  0     0  0
 14 25  1  0     0  0
 15 20  2  0     0  0
 15 21  1  0     0  0
 15 26  1  0     0  0
 16 20  1  0     0  0
 17 21  2  0     0  0
 18 22  1  0     0  0
 19 23  2  0     0  0
 22 24  2  0     0  0
 23 24  1  0     0  0
 25 27  1  0     0  0
 30 32  1  0     0  0
 31 33  1  0     0  0
M  END
> <standard_type>
pIC50

> <# Confs.>
25

> <canonical_smiles>
O=C(N1CC(C(NC(C2=CC=C(N3CCN(C)CC3)C=C2)=O)=NN4)=C4C1)[C@H](F)C5=CC=CC=C5

> <standard_relation>
=

> <Publication_ID>
nan

> <predicted_activity_value>
6.292429823902063

> <actual_activity_value>
6.522878745280337

> <Compound>
15

> <standard_units>
nM

> hash
7649752598964339451

$$$$
15_
XXILIB    08252103493D 0   0.00000     0.00000

 34 38  0     1  0            999 V2000
    6.2318   -1.1070    3.5036 F   0  0  0  0  0  1           0  0  0
   -0.3116    0.0000    2.2959 O   0  0  0  0  0  2           0  0  0
    3.5901    0.0140    5.1462 O   0  0  0  0  0  2           0  0  0
    3.3931    0.0019   -0.7454 N   0  0  0  0  0  3           0  0  0
    2.0987    0.0000   -1.1466 N   0  0  0  0  0  3           0  0  0
   -6.4390   -0.0657    0.5075 N   0  0  1  0  0  3           0  0  0
    0.0000    0.0000    0.0000 N   0  0  0  0  0  3           0  0  0
    3.7470    0.0090    2.8269 N   0  0  2  0  0  3           0  0  0
   -8.7717    0.6459    1.9607 N   0  0  1  0  0  3           0  0  0
    1.3840    0.0000   -0.0000 C   0  0  0  0  0  4           0  0  0
    3.5006    0.0061    0.5950 C   0  0  0  0  0  4           0  0  0
   -5.0666   -0.0447    0.6547 C   0  0  0  0  0  4           0  0  0
    2.2422    0.0013    1.1104 C   0  0  0  0  0  4           0  0  0
    6.2817    0.0918    5.5576 C   0  0  0  0  0  4           0  0  0
   -2.2291   -0.0022    0.9550 C   0  0  0  0  0  4           0  0  0
   -4.2237    0.5099   -0.3262 C   0  0  0  0  0  4           0  0  0
   -4.4333   -0.5755    1.7934 C   0  0  0  0  0  4           0  0  0
    6.5452   -1.0736    6.2897 C   0  0  0  0  0  4           0  0  0
    6.5309    1.3373    6.1515 C   0  0  0  0  0  4           0  0  0
   -2.8291    0.5336   -0.1852 C   0  0  0  0  0  4           0  0  0
   -3.0405   -0.5573    1.9458 C   0  0  0  0  0  4           0  0  0
    7.0359   -0.9943    7.5945 C   0  0  0  0  0  4           0  0  0
    7.0218    1.4147    7.4559 C   0  0  0  0  0  4           0  0  0
    7.2727    0.2493    8.1774 C   0  0  0  0  0  4           0  0  0
    5.7716    0.0089    4.1457 C   0  0  2  0  0  4           0  0  0
   -0.7592    0.0000    1.1511 C   0  0  0  0  0  4           0  0  0
    4.2583    0.0168    4.1132 C   0  0  0  0  0  4           0  0  0
    4.5778    0.0126    1.5794 C   0  0  0  0  0  4           0  0  0
    2.2697    0.0003    2.5765 C   0  0  0  0  0  4           0  0  0
   -7.2637   -1.1202    1.0995 C   0  0  0  0  0  4           0  0  0
   -7.1928    1.1259    0.1135 C   0  0  0  0  0  4           0  0  0
   -7.9889   -0.5487    2.3238 C   0  0  0  0  0  4           0  0  0
   -7.9188    1.6784    1.3460 C   0  0  0  0  0  4           0  0  0
   -9.4623    1.1839    3.1320 C   0  0  0  0  0  4           0  0  0
  1 25  1  0     0  0
  2 26  2  0     0  0
  3 27  2  0     0  0
  4  5  1  0     0  0
  4 11  1  0     0  0
  5 10  2  0     0  0
  6 12  1  0     0  0
  6 30  1  0     0  0
  6 31  1  0     0  0
  7 10  1  0     0  0
  7 26  1  0     0  0
  8 27  1  0     0  0
  8 28  1  0     0  0
  8 29  1  0     0  0
  9 32  1  0     0  0
  9 33  1  0     0  0
  9 34  1  0     0  0
 10 13  1  0     0  0
 11 13  2  0     0  0
 11 28  1  0     0  0
 12 16  2  0     0  0
 12 17  1  0     0  0
 13 29  1  0     0  0
 14 18  2  0     0  0
 14 19  1  0     0  0
 14 25  1  0     0  0
 15 20  2  0     0  0
 15 21  1  0     0  0
 15 26  1  0     0  0
 16 20  1  0     0  0
 17 21  2  0     0  0
 18 22  1  0     0  0
 19 23  2  0     0  0
 22 24  2  0     0  0
 23 24  1  0     0  0
 25 27  1  0     0  0
 30 32  1  0     0  0
 31 33  1  0     0  0
M  END
> <standard_type>
pIC50

> <# Confs.>
25

> <canonical_smiles>
O=C(N1CC(C(NC(C2=CC=C(N3CCN(C)CC3)C=C2)=O)=NN4)=C4C1)[C@H](F)C5=CC=CC=C5

> <standard_relation>
=

> <Publication_ID>
nan

> <predicted_activity_value>
6.292429823902063

> <actual_activity_value>
6.522878745280337

> <Compound>
15

> <standard_units>
nM

> hash
7649752598964339451

$$$$
15_
XXILIB    08252103493D 0   0.00000     0.00000

 34 38  0     1  0            999 V2000
    2.4002    1.1425    5.0130 F   0  0  0  0  0  1           0  0  0
   -0.3116    0.0000    2.2959 O   0  0  0  0  0  2           0  0  0
    5.4534    0.0278    4.4054 O   0  0  0  0  0  2           0  0  0
    3.3931    0.0019   -0.7454 N   0  0  0  0  0  3           0  0  0
    2.0987    0.0000   -1.1466 N   0  0  0  0  0  3           0  0  0
   -6.4390   -0.0657    0.5075 N   0  0  1  0  0  3           0  0  0
    0.0000    0.0000    0.0000 N   0  0  0  0  0  3           0  0  0
    3.7470    0.0090    2.8269 N   0  0  2  0  0  3           0  0  0
   -8.7965   -1.6463    0.4785 N   0  0  1  0  0  3           0  0  0
    1.3840   -0.0000    0.0000 C   0  0  0  0  0  4           0  0  0
    3.5006    0.0061    0.5950 C   0  0  0  0  0  4           0  0  0
   -5.0666   -0.0447    0.6547 C   0  0  0  0  0  4           0  0  0
    2.2422    0.0013    1.1104 C   0  0  0  0  0  4           0  0  0
    3.7790   -0.0344    6.5532 C   0  0  0  0  0  4           0  0  0
   -2.2291   -0.0022    0.9550 C   0  0  0  0  0  4           0  0  0
   -4.2237    0.5099   -0.3262 C   0  0  0  0  0  4           0  0  0
   -4.4333   -0.5755    1.7934 C   0  0  0  0  0  4           0  0  0
    4.0853    1.1397    7.2541 C   0  0  0  0  0  4           0  0  0
    4.0109   -1.2725    7.1692 C   0  0  0  0  0  4           0  0  0
   -2.8291    0.5336   -0.1852 C   0  0  0  0  0  4           0  0  0
   -3.0405   -0.5573    1.9458 C   0  0  0  0  0  4           0  0  0
    4.6246    1.0762    8.5404 C   0  0  0  0  0  4           0  0  0
    4.5498   -1.3341    8.4554 C   0  0  0  0  0  4           0  0  0
    4.8578   -0.1601    9.1399 C   0  0  0  0  0  4           0  0  0
    3.1803    0.0315    5.1756 C   0  0  2  0  0  4           0  0  0
   -0.7592    0.0000    1.1511 C   0  0  0  0  0  4           0  0  0
    4.2583    0.0168    4.1132 C   0  0  0  0  0  4           0  0  0
    4.5778    0.0126    1.5794 C   0  0  0  0  0  4           0  0  0
    2.2697    0.0003    2.5765 C   0  0  0  0  0  4           0  0  0
   -7.3511   -0.0135    1.6506 C   0  0  0  0  0  4           0  0  0
   -7.0873   -0.3620   -0.7706 C   0  0  0  0  0  4           0  0  0
   -8.1053   -1.3445    1.7432 C   0  0  0  0  0  4           0  0  0
   -7.8470   -1.6876   -0.6465 C   0  0  0  0  0  4           0  0  0
   -9.5267   -2.9092    0.5808 C   0  0  0  0  0  4           0  0  0
  1 25  1  0     0  0
  2 26  2  0     0  0
  3 27  2  0     0  0
  4  5  1  0     0  0
  4 11  1  0     0  0
  5 10  2  0     0  0
  6 12  1  0     0  0
  6 30  1  0     0  0
  6 31  1  0     0  0
  7 10  1  0     0  0
  7 26  1  0     0  0
  8 27  1  0     0  0
  8 28  1  0     0  0
  8 29  1  0     0  0
  9 32  1  0     0  0
  9 33  1  0     0  0
  9 34  1  0     0  0
 10 13  1  0     0  0
 11 13  2  0     0  0
 11 28  1  0     0  0
 12 16  2  0     0  0
 12 17  1  0     0  0
 13 29  1  0     0  0
 14 18  2  0     0  0
 14 19  1  0     0  0
 14 25  1  0     0  0
 15 20  2  0     0  0
 15 21  1  0     0  0
 15 26  1  0     0  0
 16 20  1  0     0  0
 17 21  2  0     0  0
 18 22  1  0     0  0
 19 23  2  0     0  0
 22 24  2  0     0  0
 23 24  1  0     0  0
 25 27  1  0     0  0
 30 32  1  0     0  0
 31 33  1  0     0  0
M  END
> <standard_type>
pIC50

> <# Confs.>
25

> <canonical_smiles>
O=C(N1CC(C(NC(C2=CC=C(N3CCN(C)CC3)C=C2)=O)=NN4)=C4C1)[C@H](F)C5=CC=CC=C5

> <standard_relation>
=

> <Publication_ID>
nan

> <predicted_activity_value>
6.292429823902063

> <actual_activity_value>
6.522878745280337

> <Compound>
15

> <standard_units>
nM

> hash
7649752598964339451

$$$$
15_
XXILIB    08252103493D 0   0.00000     0.00000

 34 38  0     1  0            999 V2000
    6.2318   -1.1070    3.5036 F   0  0  0  0  0  1           0  0  0
   -0.3116    0.0000    2.2959 O   0  0  0  0  0  2           0  0  0
    3.5901    0.0140    5.1462 O   0  0  0  0  0  2           0  0  0
    3.3931    0.0019   -0.7454 N   0  0  0  0  0  3           0  0  0
    2.0987    0.0000   -1.1466 N   0  0  0  0  0  3           0  0  0
   -6.4391    0.0492    0.5071 N   0  0  1  0  0  3           0  0  0
    0.0000    0.0000    0.0000 N   0  0  0  0  0  3           0  0  0
    3.7470    0.0090    2.8269 N   0  0  2  0  0  3           0  0  0
   -8.6018    1.8809    0.6723 N   0  0  1  0  0  3           0  0  0
    1.3840    0.0000   -0.0000 C   0  0  0  0  0  4           0  0  0
    3.5006    0.0061    0.5950 C   0  0  0  0  0  4           0  0  0
   -5.0666    0.0337    0.6537 C   0  0  0  0  0  4           0  0  0
    2.2422    0.0013    1.1104 C   0  0  0  0  0  4           0  0  0
    6.2817    0.0918    5.5576 C   0  0  0  0  0  4           0  0  0
   -2.2291   -0.0022    0.9550 C   0  0  0  0  0  4           0  0  0
   -4.2218   -0.5167   -0.3282 C   0  0  0  0  0  4           0  0  0
   -4.4348    0.5675    1.7918 C   0  0  0  0  0  4           0  0  0
    6.5452   -1.0736    6.2897 C   0  0  0  0  0  4           0  0  0
    6.5309    1.3373    6.1515 C   0  0  0  0  0  4           0  0  0
   -2.8273   -0.5380   -0.1862 C   0  0  0  0  0  4           0  0  0
   -3.0421    0.5524    1.9448 C   0  0  0  0  0  4           0  0  0
    7.0359   -0.9943    7.5945 C   0  0  0  0  0  4           0  0  0
    7.0218    1.4147    7.4559 C   0  0  0  0  0  4           0  0  0
    7.2727    0.2493    8.1774 C   0  0  0  0  0  4           0  0  0
    5.7716    0.0089    4.1457 C   0  0  2  0  0  4           0  0  0
   -0.7592    0.0000    1.1511 C   0  0  0  0  0  4           0  0  0
    4.2583    0.0168    4.1132 C   0  0  0  0  0  4           0  0  0
    4.5778    0.0126    1.5794 C   0  0  0  0  0  4           0  0  0
    2.2697    0.0003    2.5765 C   0  0  0  0  0  4           0  0  0
   -7.3400   -0.0082    1.6593 C   0  0  0  0  0  4           0  0  0
   -7.0802    0.5137   -0.7244 C   0  0  0  0  0  4           0  0  0
   -7.9340    1.3868    1.8894 C   0  0  0  0  0  4           0  0  0
   -7.6764    1.9041   -0.4742 C   0  0  0  0  0  4           0  0  0
   -9.1677    3.2099    0.8997 C   0  0  0  0  0  4           0  0  0
  1 25  1  0     0  0
  2 26  2  0     0  0
  3 27  2  0     0  0
  4  5  1  0     0  0
  4 11  1  0     0  0
  5 10  2  0     0  0
  6 12  1  0     0  0
  6 30  1  0     0  0
  6 31  1  0     0  0
  7 10  1  0     0  0
  7 26  1  0     0  0
  8 27  1  0     0  0
  8 28  1  0     0  0
  8 29  1  0     0  0
  9 32  1  0     0  0
  9 33  1  0     0  0
  9 34  1  0     0  0
 10 13  1  0     0  0
 11 13  2  0     0  0
 11 28  1  0     0  0
 12 16  2  0     0  0
 12 17  1  0     0  0
 13 29  1  0     0  0
 14 18  2  0     0  0
 14 19  1  0     0  0
 14 25  1  0     0  0
 15 20  2  0     0  0
 15 21  1  0     0  0
 15 26  1  0     0  0
 16 20  1  0     0  0
 17 21  2  0     0  0
 18 22  1  0     0  0
 19 23  2  0     0  0
 22 24  2  0     0  0
 23 24  1  0     0  0
 25 27  1  0     0  0
 30 32  1  0     0  0
 31 33  1  0     0  0
M  END
> <standard_type>
pIC50

> <# Confs.>
25

> <canonical_smiles>
O=C(N1CC(C(NC(C2=CC=C(N3CCN(C)CC3)C=C2)=O)=NN4)=C4C1)[C@H](F)C5=CC=CC=C5

> <standard_relation>
=

> <Publication_ID>
nan

> <predicted_activity_value>
6.292429823902063

> <actual_activity_value>
6.522878745280337

> <Compound>
15

> <standard_units>
nM

> hash
7649752598964339451

$$$$
15_
XXILIB    08252103493D 0   0.00000     0.00000

 34 38  0     1  0            999 V2000
    2.4002    1.1425    5.0130 F   0  0  0  0  0  1           0  0  0
   -0.3116    0.0000    2.2959 O   0  0  0  0  0  2           0  0  0
    5.4534    0.0278    4.4054 O   0  0  0  0  0  2           0  0  0
    3.3931    0.0019   -0.7454 N   0  0  0  0  0  3           0  0  0
    2.0987    0.0000   -1.1466 N   0  0  0  0  0  3           0  0  0
   -6.4390   -0.0657    0.5075 N   0  0  1  0  0  3           0  0  0
    0.0000    0.0000    0.0000 N   0  0  0  0  0  3           0  0  0
    3.7470    0.0090    2.8269 N   0  0  2  0  0  3           0  0  0
   -8.7717    0.6459    1.9607 N   0  0  1  0  0  3           0  0  0
    1.3840   -0.0000    0.0000 C   0  0  0  0  0  4           0  0  0
    3.5006    0.0061    0.5950 C   0  0  0  0  0  4           0  0  0
   -5.0666   -0.0447    0.6547 C   0  0  0  0  0  4           0  0  0
    2.2422    0.0013    1.1104 C   0  0  0  0  0  4           0  0  0
    3.7790   -0.0344    6.5532 C   0  0  0  0  0  4           0  0  0
   -2.2291   -0.0022    0.9550 C   0  0  0  0  0  4           0  0  0
   -4.2237    0.5099   -0.3262 C   0  0  0  0  0  4           0  0  0
   -4.4333   -0.5755    1.7934 C   0  0  0  0  0  4           0  0  0
    4.0853    1.1397    7.2541 C   0  0  0  0  0  4           0  0  0
    4.0109   -1.2725    7.1692 C   0  0  0  0  0  4           0  0  0
   -2.8291    0.5336   -0.1852 C   0  0  0  0  0  4           0  0  0
   -3.0405   -0.5573    1.9458 C   0  0  0  0  0  4           0  0  0
    4.6246    1.0762    8.5404 C   0  0  0  0  0  4           0  0  0
    4.5498   -1.3341    8.4554 C   0  0  0  0  0  4           0  0  0
    4.8578   -0.1601    9.1399 C   0  0  0  0  0  4           0  0  0
    3.1803    0.0315    5.1756 C   0  0  2  0  0  4           0  0  0
   -0.7592    0.0000    1.1511 C   0  0  0  0  0  4           0  0  0
    4.2583    0.0168    4.1132 C   0  0  0  0  0  4           0  0  0
    4.5778    0.0126    1.5794 C   0  0  0  0  0  4           0  0  0
    2.2697    0.0003    2.5765 C   0  0  0  0  0  4           0  0  0
   -7.2637   -1.1202    1.0995 C   0  0  0  0  0  4           0  0  0
   -7.1928    1.1259    0.1135 C   0  0  0  0  0  4           0  0  0
   -7.9889   -0.5487    2.3238 C   0  0  0  0  0  4           0  0  0
   -7.9188    1.6784    1.3460 C   0  0  0  0  0  4           0  0  0
   -9.4623    1.1839    3.1320 C   0  0  0  0  0  4           0  0  0
  1 25  1  0     0  0
  2 26  2  0     0  0
  3 27  2  0     0  0
  4  5  1  0     0  0
  4 11  1  0     0  0
  5 10  2  0     0  0
  6 12  1  0     0  0
  6 30  1  0     0  0
  6 31  1  0     0  0
  7 10  1  0     0  0
  7 26  1  0     0  0
  8 27  1  0     0  0
  8 28  1  0     0  0
  8 29  1  0     0  0
  9 32  1  0     0  0
  9 33  1  0     0  0
  9 34  1  0     0  0
 10 13  1  0     0  0
 11 13  2  0     0  0
 11 28  1  0     0  0
 12 16  2  0     0  0
 12 17  1  0     0  0
 13 29  1  0     0  0
 14 18  2  0     0  0
 14 19  1  0     0  0
 14 25  1  0     0  0
 15 20  2  0     0  0
 15 21  1  0     0  0
 15 26  1  0     0  0
 16 20  1  0     0  0
 17 21  2  0     0  0
 18 22  1  0     0  0
 19 23  2  0     0  0
 22 24  2  0     0  0
 23 24  1  0     0  0
 25 27  1  0     0  0
 30 32  1  0     0  0
 31 33  1  0     0  0
M  END
> <standard_type>
pIC50

> <# Confs.>
25

> <canonical_smiles>
O=C(N1CC(C(NC(C2=CC=C(N3CCN(C)CC3)C=C2)=O)=NN4)=C4C1)[C@H](F)C5=CC=CC=C5

> <standard_relation>
=

> <Publication_ID>
nan

> <predicted_activity_value>
6.292429823902063

> <actual_activity_value>
6.522878745280337

> <Compound>
15

> <standard_units>
nM

> hash
7649752598964339451

$$$$
15_
XXILIB    08252103493D 0   0.00000     0.00000

 34 38  0     1  0            999 V2000
    2.4002    1.1425    5.0130 F   0  0  0  0  0  1           0  0  0
   -0.3116    0.0000    2.2959 O   0  0  0  0  0  2           0  0  0
    5.4534    0.0278    4.4054 O   0  0  0  0  0  2           0  0  0
    3.3931    0.0019   -0.7454 N   0  0  0  0  0  3           0  0  0
    2.0987    0.0000   -1.1466 N   0  0  0  0  0  3           0  0  0
   -6.4391    0.0492    0.5071 N   0  0  1  0  0  3           0  0  0
    0.0000    0.0000    0.0000 N   0  0  0  0  0  3           0  0  0
    3.7470    0.0090    2.8269 N   0  0  2  0  0  3           0  0  0
   -8.6018    1.8809    0.6723 N   0  0  1  0  0  3           0  0  0
    1.3840   -0.0000    0.0000 C   0  0  0  0  0  4           0  0  0
    3.5006    0.0061    0.5950 C   0  0  0  0  0  4           0  0  0
   -5.0666    0.0337    0.6537 C   0  0  0  0  0  4           0  0  0
    2.2422    0.0013    1.1104 C   0  0  0  0  0  4           0  0  0
    3.7790   -0.0344    6.5532 C   0  0  0  0  0  4           0  0  0
   -2.2291   -0.0022    0.9550 C   0  0  0  0  0  4           0  0  0
   -4.2218   -0.5167   -0.3282 C   0  0  0  0  0  4           0  0  0
   -4.4348    0.5675    1.7918 C   0  0  0  0  0  4           0  0  0
    4.0853    1.1397    7.2541 C   0  0  0  0  0  4           0  0  0
    4.0109   -1.2725    7.1692 C   0  0  0  0  0  4           0  0  0
   -2.8273   -0.5380   -0.1862 C   0  0  0  0  0  4           0  0  0
   -3.0421    0.5524    1.9448 C   0  0  0  0  0  4           0  0  0
    4.6246    1.0762    8.5404 C   0  0  0  0  0  4           0  0  0
    4.5498   -1.3341    8.4554 C   0  0  0  0  0  4           0  0  0
    4.8578   -0.1601    9.1399 C   0  0  0  0  0  4           0  0  0
    3.1803    0.0315    5.1756 C   0  0  2  0  0  4           0  0  0
   -0.7592    0.0000    1.1511 C   0  0  0  0  0  4           0  0  0
    4.2583    0.0168    4.1132 C   0  0  0  0  0  4           0  0  0
    4.5778    0.0126    1.5794 C   0  0  0  0  0  4           0  0  0
    2.2697    0.0003    2.5765 C   0  0  0  0  0  4           0  0  0
   -7.3400   -0.0082    1.6593 C   0  0  0  0  0  4           0  0  0
   -7.0802    0.5137   -0.7244 C   0  0  0  0  0  4           0  0  0
   -7.9340    1.3868    1.8894 C   0  0  0  0  0  4           0  0  0
   -7.6764    1.9041   -0.4742 C   0  0  0  0  0  4           0  0  0
   -9.1677    3.2099    0.8997 C   0  0  0  0  0  4           0  0  0
  1 25  1  0     0  0
  2 26  2  0     0  0
  3 27  2  0     0  0
  4  5  1  0     0  0
  4 11  1  0     0  0
  5 10  2  0     0  0
  6 12  1  0     0  0
  6 30  1  0     0  0
  6 31  1  0     0  0
  7 10  1  0     0  0
  7 26  1  0     0  0
  8 27  1  0     0  0
  8 28  1  0     0  0
  8 29  1  0     0  0
  9 32  1  0     0  0
  9 33  1  0     0  0
  9 34  1  0     0  0
 10 13  1  0     0  0
 11 13  2  0     0  0
 11 28  1  0     0  0
 12 16  2  0     0  0
 12 17  1  0     0  0
 13 29  1  0     0  0
 14 18  2  0     0  0
 14 19  1  0     0  0
 14 25  1  0     0  0
 15 20  2  0     0  0
 15 21  1  0     0  0
 15 26  1  0     0  0
 16 20  1  0     0  0
 17 21  2  0     0  0
 18 22  1  0     0  0
 19 23  2  0     0  0
 22 24  2  0     0  0
 23 24  1  0     0  0
 25 27  1  0     0  0
 30 32  1  0     0  0
 31 33  1  0     0  0
M  END
> <standard_type>
pIC50

> <# Confs.>
25

> <canonical_smiles>
O=C(N1CC(C(NC(C2=CC=C(N3CCN(C)CC3)C=C2)=O)=NN4)=C4C1)[C@H](F)C5=CC=CC=C5

> <standard_relation>
=

> <Publication_ID>
nan

> <predicted_activity_value>
6.292429823902063

> <actual_activity_value>
6.522878745280337

> <Compound>
15

> <standard_units>
nM

> hash
7649752598964339451

$$$$
15_
XXILIB    08252103493D 0   0.00000     0.00000

 34 38  0     1  0            999 V2000
    6.2318   -1.1070    3.5036 F   0  0  0  0  0  1           0  0  0
   -0.3116    0.0000    2.2959 O   0  0  0  0  0  2           0  0  0
    3.5901    0.0140    5.1462 O   0  0  0  0  0  2           0  0  0
    3.3931    0.0019   -0.7454 N   0  0  0  0  0  3           0  0  0
    2.0987    0.0000   -1.1466 N   0  0  0  0  0  3           0  0  0
   -6.4092   -0.0665    0.2841 N   0  0  1  0  0  3           0  0  0
    0.0000    0.0000    0.0000 N   0  0  0  0  0  3           0  0  0
    3.7470    0.0090    2.8269 N   0  0  2  0  0  3           0  0  0
   -9.1731   -0.0290   -0.4272 N   0  0  1  0  0  3           0  0  0
    1.3840    0.0000   -0.0000 C   0  0  0  0  0  4           0  0  0
    3.5006    0.0061    0.5950 C   0  0  0  0  0  4           0  0  0
   -5.0463   -0.0468    0.5023 C   0  0  0  0  0  4           0  0  0
    2.2422    0.0013    1.1104 C   0  0  0  0  0  4           0  0  0
    6.2817    0.0918    5.5576 C   0  0  0  0  0  4           0  0  0
   -2.2291   -0.0022    0.9550 C   0  0  0  0  0  4           0  0  0
   -4.4900    0.5057    1.6710 C   0  0  0  0  0  4           0  0  0
   -4.1367   -0.5782   -0.4302 C   0  0  0  0  0  4           0  0  0
    6.5452   -1.0736    6.2897 C   0  0  0  0  0  4           0  0  0
    6.5309    1.3373    6.1515 C   0  0  0  0  0  4           0  0  0
   -3.1071    0.5312    1.8994 C   0  0  0  0  0  4           0  0  0
   -2.7526   -0.5589   -0.2129 C   0  0  0  0  0  4           0  0  0
    7.0359   -0.9943    7.5945 C   0  0  0  0  0  4           0  0  0
    7.0218    1.4147    7.4559 C   0  0  0  0  0  4           0  0  0
    7.2727    0.2493    8.1774 C   0  0  0  0  0  4           0  0  0
    5.7716    0.0089    4.1457 C   0  0  2  0  0  4           0  0  0
   -0.7592   -0.0000    1.1511 C   0  0  0  0  0  4           0  0  0
    4.2583    0.0168    4.1132 C   0  0  0  0  0  4           0  0  0
    4.5778    0.0126    1.5794 C   0  0  0  0  0  4           0  0  0
    2.2697    0.0003    2.5765 C   0  0  0  0  0  4           0  0  0
   -7.1390    1.2053    0.2364 C   0  0  0  0  0  4           0  0  0
   -6.9939   -1.1924   -0.4524 C   0  0  0  0  0  4           0  0  0
   -8.6344    0.9922    0.4780 C   0  0  0  0  0  4           0  0  0
   -8.4953   -1.3070   -0.1831 C   0  0  0  0  0  4           0  0  0
  -10.6166   -0.1708   -0.2422 C   0  0  0  0  0  4           0  0  0
  1 25  1  0     0  0
  2 26  2  0     0  0
  3 27  2  0     0  0
  4  5  1  0     0  0
  4 11  1  0     0  0
  5 10  2  0     0  0
  6 12  1  0     0  0
  6 30  1  0     0  0
  6 31  1  0     0  0
  7 10  1  0     0  0
  7 26  1  0     0  0
  8 27  1  0     0  0
  8 28  1  0     0  0
  8 29  1  0     0  0
  9 32  1  0     0  0
  9 33  1  0     0  0
  9 34  1  0     0  0
 10 13  1  0     0  0
 11 13  2  0     0  0
 11 28  1  0     0  0
 12 16  2  0     0  0
 12 17  1  0     0  0
 13 29  1  0     0  0
 14 18  2  0     0  0
 14 19  1  0     0  0
 14 25  1  0     0  0
 15 20  2  0     0  0
 15 21  1  0     0  0
 15 26  1  0     0  0
 16 20  1  0     0  0
 17 21  2  0     0  0
 18 22  1  0     0  0
 19 23  2  0     0  0
 22 24  2  0     0  0
 23 24  1  0     0  0
 25 27  1  0     0  0
 30 32  1  0     0  0
 31 33  1  0     0  0
M  END
> <standard_type>
pIC50

> <# Confs.>
25

> <canonical_smiles>
O=C(N1CC(C(NC(C2=CC=C(N3CCN(C)CC3)C=C2)=O)=NN4)=C4C1)[C@H](F)C5=CC=CC=C5

> <standard_relation>
=

> <Publication_ID>
nan

> <predicted_activity_value>
6.292429823902063

> <actual_activity_value>
6.522878745280337

> <Compound>
15

> <standard_units>
nM

> hash
7649752598964339451

$$$$
15_
XXILIB    08252103493D 0   0.00000     0.00000

 34 38  0     1  0            999 V2000
    2.4002    1.1425    5.0130 F   0  0  0  0  0  1           0  0  0
   -0.3116    0.0000    2.2959 O   0  0  0  0  0  2           0  0  0
    5.4534    0.0278    4.4054 O   0  0  0  0  0  2           0  0  0
    3.3931    0.0019   -0.7454 N   0  0  0  0  0  3           0  0  0
    2.0987    0.0000   -1.1466 N   0  0  0  0  0  3           0  0  0
   -6.4092   -0.0665    0.2841 N   0  0  1  0  0  3           0  0  0
    0.0000    0.0000    0.0000 N   0  0  0  0  0  3           0  0  0
    3.7470    0.0090    2.8269 N   0  0  2  0  0  3           0  0  0
   -9.1731   -0.0290   -0.4272 N   0  0  1  0  0  3           0  0  0
    1.3840   -0.0000    0.0000 C   0  0  0  0  0  4           0  0  0
    3.5006    0.0061    0.5950 C   0  0  0  0  0  4           0  0  0
   -5.0463   -0.0468    0.5023 C   0  0  0  0  0  4           0  0  0
    2.2422    0.0013    1.1104 C   0  0  0  0  0  4           0  0  0
    3.7790   -0.0344    6.5532 C   0  0  0  0  0  4           0  0  0
   -2.2291   -0.0022    0.9550 C   0  0  0  0  0  4           0  0  0
   -4.4900    0.5057    1.6710 C   0  0  0  0  0  4           0  0  0
   -4.1367   -0.5782   -0.4302 C   0  0  0  0  0  4           0  0  0
    4.0853    1.1397    7.2541 C   0  0  0  0  0  4           0  0  0
    4.0109   -1.2725    7.1692 C   0  0  0  0  0  4           0  0  0
   -3.1071    0.5312    1.8994 C   0  0  0  0  0  4           0  0  0
   -2.7526   -0.5589   -0.2129 C   0  0  0  0  0  4           0  0  0
    4.6246    1.0762    8.5404 C   0  0  0  0  0  4           0  0  0
    4.5498   -1.3341    8.4554 C   0  0  0  0  0  4           0  0  0
    4.8578   -0.1601    9.1399 C   0  0  0  0  0  4           0  0  0
    3.1803    0.0315    5.1756 C   0  0  2  0  0  4           0  0  0
   -0.7592   -0.0000    1.1511 C   0  0  0  0  0  4           0  0  0
    4.2583    0.0168    4.1132 C   0  0  0  0  0  4           0  0  0
    4.5778    0.0126    1.5794 C   0  0  0  0  0  4           0  0  0
    2.2697    0.0003    2.5765 C   0  0  0  0  0  4           0  0  0
   -7.1390    1.2053    0.2364 C   0  0  0  0  0  4           0  0  0
   -6.9939   -1.1924   -0.4524 C   0  0  0  0  0  4           0  0  0
   -8.6344    0.9922    0.4780 C   0  0  0  0  0  4           0  0  0
   -8.4953   -1.3070   -0.1831 C   0  0  0  0  0  4           0  0  0
  -10.6166   -0.1708   -0.2422 C   0  0  0  0  0  4           0  0  0
  1 25  1  0     0  0
  2 26  2  0     0  0
  3 27  2  0     0  0
  4  5  1  0     0  0
  4 11  1  0     0  0
  5 10  2  0     0  0
  6 12  1  0     0  0
  6 30  1  0     0  0
  6 31  1  0     0  0
  7 10  1  0     0  0
  7 26  1  0     0  0
  8 27  1  0     0  0
  8 28  1  0     0  0
  8 29  1  0     0  0
  9 32  1  0     0  0
  9 33  1  0     0  0
  9 34  1  0     0  0
 10 13  1  0     0  0
 11 13  2  0     0  0
 11 28  1  0     0  0
 12 16  2  0     0  0
 12 17  1  0     0  0
 13 29  1  0     0  0
 14 18  2  0     0  0
 14 19  1  0     0  0
 14 25  1  0     0  0
 15 20  2  0     0  0
 15 21  1  0     0  0
 15 26  1  0     0  0
 16 20  1  0     0  0
 17 21  2  0     0  0
 18 22  1  0     0  0
 19 23  2  0     0  0
 22 24  2  0     0  0
 23 24  1  0     0  0
 25 27  1  0     0  0
 30 32  1  0     0  0
 31 33  1  0     0  0
M  END
> <standard_type>
pIC50

> <# Confs.>
25

> <canonical_smiles>
O=C(N1CC(C(NC(C2=CC=C(N3CCN(C)CC3)C=C2)=O)=NN4)=C4C1)[C@H](F)C5=CC=CC=C5

> <standard_relation>
=

> <Publication_ID>
nan

> <predicted_activity_value>
6.292429823902063

> <actual_activity_value>
6.522878745280337

> <Compound>
15

> <standard_units>
nM

> hash
7649752598964339451

$$$$
15_
XXILIB    08252103493D 0   0.00000     0.00000

 34 38  0     1  0            999 V2000
    2.8523    1.3259    5.4692 F   0  0  0  0  0  1           0  0  0
   -0.3116    0.0000    2.2959 O   0  0  0  0  0  2           0  0  0
    5.4534    0.0278    4.4054 O   0  0  0  0  0  2           0  0  0
    3.3931    0.0019   -0.7454 N   0  0  0  0  0  3           0  0  0
    2.0987    0.0000   -1.1466 N   0  0  0  0  0  3           0  0  0
   -6.4390   -0.0657    0.5075 N   0  0  1  0  0  3           0  0  0
    0.0000    0.0000    0.0000 N   0  0  0  0  0  3           0  0  0
    3.7470    0.0090    2.8269 N   0  0  2  0  0  3           0  0  0
   -9.2692   -0.3693    0.2974 N   0  0  1  0  0  3           0  0  0
    1.3840   -0.0000    0.0000 C   0  0  0  0  0  4           0  0  0
    3.5006    0.0061    0.5950 C   0  0  0  0  0  4           0  0  0
   -5.0666   -0.0447    0.6547 C   0  0  0  0  0  4           0  0  0
    2.2422    0.0013    1.1104 C   0  0  0  0  0  4           0  0  0
    3.6175   -0.7256    6.3988 C   0  0  0  0  0  4           0  0  0
   -2.2291   -0.0022    0.9550 C   0  0  0  0  0  4           0  0  0
   -4.2237    0.5099   -0.3262 C   0  0  0  0  0  4           0  0  0
   -4.4333   -0.5755    1.7934 C   0  0  0  0  0  4           0  0  0
    4.2642   -0.0654    7.4522 C   0  0  0  0  0  4           0  0  0
    3.3564   -2.0982    6.5165 C   0  0  0  0  0  4           0  0  0
   -2.8291    0.5336   -0.1852 C   0  0  0  0  0  4           0  0  0
   -3.0405   -0.5573    1.9458 C   0  0  0  0  0  4           0  0  0
    4.6534   -0.7671    8.5949 C   0  0  0  0  0  4           0  0  0
    3.7458   -2.7980    7.6599 C   0  0  0  0  0  4           0  0  0
    4.3954   -2.1328    8.6978 C   0  0  0  0  0  4           0  0  0
    3.1803    0.0315    5.1756 C   0  0  2  0  0  4           0  0  0
   -0.7592    0.0000    1.1511 C   0  0  0  0  0  4           0  0  0
    4.2583    0.0168    4.1132 C   0  0  0  0  0  4           0  0  0
    4.5778    0.0126    1.5794 C   0  0  0  0  0  4           0  0  0
    2.2697    0.0003    2.5765 C   0  0  0  0  0  4           0  0  0
   -7.0193   -0.7751   -0.6380 C   0  0  0  0  0  4           0  0  0
   -7.2829    0.0664    1.7001 C   0  0  0  0  0  4           0  0  0
   -8.4466   -0.2997   -0.9153 C   0  0  0  0  0  4           0  0  0
   -8.6995    0.5068    1.3270 C   0  0  0  0  0  4           0  0  0
  -10.6499    0.0134    0.0054 C   0  0  0  0  0  4           0  0  0
  1 25  1  0     0  0
  2 26  2  0     0  0
  3 27  2  0     0  0
  4  5  1  0     0  0
  4 11  1  0     0  0
  5 10  2  0     0  0
  6 12  1  0     0  0
  6 30  1  0     0  0
  6 31  1  0     0  0
  7 10  1  0     0  0
  7 26  1  0     0  0
  8 27  1  0     0  0
  8 28  1  0     0  0
  8 29  1  0     0  0
  9 32  1  0     0  0
  9 33  1  0     0  0
  9 34  1  0     0  0
 10 13  1  0     0  0
 11 13  2  0     0  0
 11 28  1  0     0  0
 12 16  2  0     0  0
 12 17  1  0     0  0
 13 29  1  0     0  0
 14 18  2  0     0  0
 14 19  1  0     0  0
 14 25  1  0     0  0
 15 20  2  0     0  0
 15 21  1  0     0  0
 15 26  1  0     0  0
 16 20  1  0     0  0
 17 21  2  0     0  0
 18 22  1  0     0  0
 19 23  2  0     0  0
 22 24  2  0     0  0
 23 24  1  0     0  0
 25 27  1  0     0  0
 30 32  1  0     0  0
 31 33  1  0     0  0
M  END
> <standard_type>
pIC50

> <# Confs.>
25

> <canonical_smiles>
O=C(N1CC(C(NC(C2=CC=C(N3CCN(C)CC3)C=C2)=O)=NN4)=C4C1)[C@H](F)C5=CC=CC=C5

> <standard_relation>
=

> <Publication_ID>
nan

> <predicted_activity_value>
6.292429823902063

> <actual_activity_value>
6.522878745280337

> <Compound>
15

> <standard_units>
nM

> hash
7649752598964339451

$$$$
15_
XXILIB    08252103493D 0   0.00000     0.00000

 34 38  0     1  0            999 V2000
    6.2318   -1.1070    3.5036 F   0  0  0  0  0  1           0  0  0
   -0.3116    0.0000    2.2959 O   0  0  0  0  0  2           0  0  0
    3.5901    0.0140    5.1462 O   0  0  0  0  0  2           0  0  0
    3.3931    0.0019   -0.7454 N   0  0  0  0  0  3           0  0  0
    2.0987    0.0000   -1.1466 N   0  0  0  0  0  3           0  0  0
   -6.4092   -0.0665    0.2841 N   0  0  1  0  0  3           0  0  0
    0.0000    0.0000    0.0000 N   0  0  0  0  0  3           0  0  0
    3.7470    0.0090    2.8269 N   0  0  2  0  0  3           0  0  0
   -8.5421    0.6281   -1.4553 N   0  0  1  0  0  3           0  0  0
    1.3840    0.0000   -0.0000 C   0  0  0  0  0  4           0  0  0
    3.5006    0.0061    0.5950 C   0  0  0  0  0  4           0  0  0
   -5.0463   -0.0468    0.5023 C   0  0  0  0  0  4           0  0  0
    2.2422    0.0013    1.1104 C   0  0  0  0  0  4           0  0  0
    6.2817    0.0918    5.5576 C   0  0  0  0  0  4           0  0  0
   -2.2291   -0.0022    0.9550 C   0  0  0  0  0  4           0  0  0
   -4.4900    0.5057    1.6710 C   0  0  0  0  0  4           0  0  0
   -4.1367   -0.5782   -0.4302 C   0  0  0  0  0  4           0  0  0
    6.5452   -1.0736    6.2897 C   0  0  0  0  0  4           0  0  0
    6.5309    1.3373    6.1515 C   0  0  0  0  0  4           0  0  0
   -3.1071    0.5312    1.8994 C   0  0  0  0  0  4           0  0  0
   -2.7526   -0.5589   -0.2129 C   0  0  0  0  0  4           0  0  0
    7.0359   -0.9943    7.5945 C   0  0  0  0  0  4           0  0  0
    7.0218    1.4147    7.4559 C   0  0  0  0  0  4           0  0  0
    7.2727    0.2493    8.1774 C   0  0  0  0  0  4           0  0  0
    5.7716    0.0089    4.1457 C   0  0  2  0  0  4           0  0  0
   -0.7592   -0.0000    1.1511 C   0  0  0  0  0  4           0  0  0
    4.2583    0.0168    4.1132 C   0  0  0  0  0  4           0  0  0
    4.5778    0.0126    1.5794 C   0  0  0  0  0  4           0  0  0
    2.2697    0.0003    2.5765 C   0  0  0  0  0  4           0  0  0
   -7.0622   -1.1132   -0.5029 C   0  0  0  0  0  4           0  0  0
   -7.2760    1.0613    0.6281 C   0  0  0  0  0  4           0  0  0
   -7.6370   -0.4875   -1.7785 C   0  0  0  0  0  4           0  0  0
   -7.8500    1.6580   -0.6620 C   0  0  0  0  0  4           0  0  0
   -9.0985    1.2086   -2.6768 C   0  0  0  0  0  4           0  0  0
  1 25  1  0     0  0
  2 26  2  0     0  0
  3 27  2  0     0  0
  4  5  1  0     0  0
  4 11  1  0     0  0
  5 10  2  0     0  0
  6 12  1  0     0  0
  6 30  1  0     0  0
  6 31  1  0     0  0
  7 10  1  0     0  0
  7 26  1  0     0  0
  8 27  1  0     0  0
  8 28  1  0     0  0
  8 29  1  0     0  0
  9 32  1  0     0  0
  9 33  1  0     0  0
  9 34  1  0     0  0
 10 13  1  0     0  0
 11 13  2  0     0  0
 11 28  1  0     0  0
 12 16  2  0     0  0
 12 17  1  0     0  0
 13 29  1  0     0  0
 14 18  2  0     0  0
 14 19  1  0     0  0
 14 25  1  0     0  0
 15 20  2  0     0  0
 15 21  1  0     0  0
 15 26  1  0     0  0
 16 20  1  0     0  0
 17 21  2  0     0  0
 18 22  1  0     0  0
 19 23  2  0     0  0
 22 24  2  0     0  0
 23 24  1  0     0  0
 25 27  1  0     0  0
 30 32  1  0     0  0
 31 33  1  0     0  0
M  END
> <standard_type>
pIC50

> <# Confs.>
25

> <canonical_smiles>
O=C(N1CC(C(NC(C2=CC=C(N3CCN(C)CC3)C=C2)=O)=NN4)=C4C1)[C@H](F)C5=CC=CC=C5

> <standard_relation>
=

> <Publication_ID>
nan

> <predicted_activity_value>
6.292429823902063

> <actual_activity_value>
6.522878745280337

> <Compound>
15

> <standard_units>
nM

> hash
7649752598964339451

$$$$
15_
XXILIB    08252103493D 0   0.00000     0.00000

 34 38  0     1  0            999 V2000
    2.4002    1.1425    5.0130 F   0  0  0  0  0  1           0  0  0
   -0.3116    0.0000    2.2959 O   0  0  0  0  0  2           0  0  0
    5.4534    0.0278    4.4054 O   0  0  0  0  0  2           0  0  0
    3.3931    0.0019   -0.7454 N   0  0  0  0  0  3           0  0  0
    2.0987    0.0000   -1.1466 N   0  0  0  0  0  3           0  0  0
   -6.4092   -0.0665    0.2841 N   0  0  1  0  0  3           0  0  0
    0.0000    0.0000    0.0000 N   0  0  0  0  0  3           0  0  0
    3.7470    0.0090    2.8269 N   0  0  2  0  0  3           0  0  0
   -8.5421    0.6281   -1.4553 N   0  0  1  0  0  3           0  0  0
    1.3840   -0.0000    0.0000 C   0  0  0  0  0  4           0  0  0
    3.5006    0.0061    0.5950 C   0  0  0  0  0  4           0  0  0
   -5.0463   -0.0468    0.5023 C   0  0  0  0  0  4           0  0  0
    2.2422    0.0013    1.1104 C   0  0  0  0  0  4           0  0  0
    3.7790   -0.0344    6.5532 C   0  0  0  0  0  4           0  0  0
   -2.2291   -0.0022    0.9550 C   0  0  0  0  0  4           0  0  0
   -4.4900    0.5057    1.6710 C   0  0  0  0  0  4           0  0  0
   -4.1367   -0.5782   -0.4302 C   0  0  0  0  0  4           0  0  0
    4.0853    1.1397    7.2541 C   0  0  0  0  0  4           0  0  0
    4.0109   -1.2725    7.1692 C   0  0  0  0  0  4           0  0  0
   -3.1071    0.5312    1.8994 C   0  0  0  0  0  4           0  0  0
   -2.7526   -0.5589   -0.2129 C   0  0  0  0  0  4           0  0  0
    4.6246    1.0762    8.5404 C   0  0  0  0  0  4           0  0  0
    4.5498   -1.3341    8.4554 C   0  0  0  0  0  4           0  0  0
    4.8578   -0.1601    9.1399 C   0  0  0  0  0  4           0  0  0
    3.1803    0.0315    5.1756 C   0  0  2  0  0  4           0  0  0
   -0.7592   -0.0000    1.1511 C   0  0  0  0  0  4           0  0  0
    4.2583    0.0168    4.1132 C   0  0  0  0  0  4           0  0  0
    4.5778    0.0126    1.5794 C   0  0  0  0  0  4           0  0  0
    2.2697    0.0003    2.5765 C   0  0  0  0  0  4           0  0  0
   -7.0622   -1.1132   -0.5029 C   0  0  0  0  0  4           0  0  0
   -7.2760    1.0613    0.6281 C   0  0  0  0  0  4           0  0  0
   -7.6370   -0.4875   -1.7785 C   0  0  0  0  0  4           0  0  0
   -7.8500    1.6580   -0.6620 C   0  0  0  0  0  4           0  0  0
   -9.0985    1.2086   -2.6768 C   0  0  0  0  0  4           0  0  0
  1 25  1  0     0  0
  2 26  2  0     0  0
  3 27  2  0     0  0
  4  5  1  0     0  0
  4 11  1  0     0  0
  5 10  2  0     0  0
  6 12  1  0     0  0
  6 30  1  0     0  0
  6 31  1  0     0  0
  7 10  1  0     0  0
  7 26  1  0     0  0
  8 27  1  0     0  0
  8 28  1  0     0  0
  8 29  1  0     0  0
  9 32  1  0     0  0
  9 33  1  0     0  0
  9 34  1  0     0  0
 10 13  1  0     0  0
 11 13  2  0     0  0
 11 28  1  0     0  0
 12 16  2  0     0  0
 12 17  1  0     0  0
 13 29  1  0     0  0
 14 18  2  0     0  0
 14 19  1  0     0  0
 14 25  1  0     0  0
 15 20  2  0     0  0
 15 21  1  0     0  0
 15 26  1  0     0  0
 16 20  1  0     0  0
 17 21  2  0     0  0
 18 22  1  0     0  0
 19 23  2  0     0  0
 22 24  2  0     0  0
 23 24  1  0     0  0
 25 27  1  0     0  0
 30 32  1  0     0  0
 31 33  1  0     0  0
M  END
> <standard_type>
pIC50

> <# Confs.>
25

> <canonical_smiles>
O=C(N1CC(C(NC(C2=CC=C(N3CCN(C)CC3)C=C2)=O)=NN4)=C4C1)[C@H](F)C5=CC=CC=C5

> <standard_relation>
=

> <Publication_ID>
nan

> <predicted_activity_value>
6.292429823902063

> <actual_activity_value>
6.522878745280337

> <Compound>
15

> <standard_units>
nM

> hash
7649752598964339451

$$$$
15_
XXILIB    08252103493D 0   0.00000     0.00000

 34 38  0     1  0            999 V2000
    6.2318   -1.1070    3.5036 F   0  0  0  0  0  1           0  0  0
   -0.3116    0.0000    2.2959 O   0  0  0  0  0  2           0  0  0
    3.5901    0.0140    5.1462 O   0  0  0  0  0  2           0  0  0
    3.3931    0.0019   -0.7454 N   0  0  0  0  0  3           0  0  0
    2.0987    0.0000   -1.1466 N   0  0  0  0  0  3           0  0  0
   -6.4093    0.0484    0.2836 N   0  0  1  0  0  3           0  0  0
    0.0000    0.0000    0.0000 N   0  0  0  0  0  3           0  0  0
    3.7470    0.0090    2.8269 N   0  0  2  0  0  3           0  0  0
   -8.2775   -0.6696   -1.7298 N   0  0  1  0  0  3           0  0  0
    1.3840    0.0000   -0.0000 C   0  0  0  0  0  4           0  0  0
    3.5006    0.0061    0.5950 C   0  0  0  0  0  4           0  0  0
   -5.0463    0.0316    0.5012 C   0  0  0  0  0  4           0  0  0
    2.2422    0.0013    1.1104 C   0  0  0  0  0  4           0  0  0
    6.2817    0.0918    5.5576 C   0  0  0  0  0  4           0  0  0
   -2.2291   -0.0022    0.9550 C   0  0  0  0  0  4           0  0  0
   -4.4882   -0.5209    1.6690 C   0  0  0  0  0  4           0  0  0
   -4.1383    0.5648   -0.4318 C   0  0  0  0  0  4           0  0  0
    6.5452   -1.0736    6.2897 C   0  0  0  0  0  4           0  0  0
    6.5309    1.3373    6.1515 C   0  0  0  0  0  4           0  0  0
   -3.1053   -0.5404    1.8984 C   0  0  0  0  0  4           0  0  0
   -2.7542    0.5508   -0.2140 C   0  0  0  0  0  4           0  0  0
    7.0359   -0.9943    7.5945 C   0  0  0  0  0  4           0  0  0
    7.0218    1.4147    7.4559 C   0  0  0  0  0  4           0  0  0
    7.2727    0.2493    8.1774 C   0  0  0  0  0  4           0  0  0
    5.7716    0.0089    4.1457 C   0  0  2  0  0  4           0  0  0
   -0.7592    0.0000    1.1511 C   0  0  0  0  0  4           0  0  0
    4.2583    0.0168    4.1132 C   0  0  0  0  0  4           0  0  0
    4.5778    0.0126    1.5794 C   0  0  0  0  0  4           0  0  0
    2.2697    0.0003    2.5765 C   0  0  0  0  0  4           0  0  0
   -7.0532    1.1007   -0.5042 C   0  0  0  0  0  4           0  0  0
   -7.2365   -1.1456    0.4668 C   0  0  0  0  0  4           0  0  0
   -7.4305    0.5274   -1.8756 C   0  0  0  0  0  4           0  0  0
   -7.6124   -1.6998   -0.9126 C   0  0  0  0  0  4           0  0  0
   -8.6354   -1.2092   -3.0409 C   0  0  0  0  0  4           0  0  0
  1 25  1  0     0  0
  2 26  2  0     0  0
  3 27  2  0     0  0
  4  5  1  0     0  0
  4 11  1  0     0  0
  5 10  2  0     0  0
  6 12  1  0     0  0
  6 30  1  0     0  0
  6 31  1  0     0  0
  7 10  1  0     0  0
  7 26  1  0     0  0
  8 27  1  0     0  0
  8 28  1  0     0  0
  8 29  1  0     0  0
  9 32  1  0     0  0
  9 33  1  0     0  0
  9 34  1  0     0  0
 10 13  1  0     0  0
 11 13  2  0     0  0
 11 28  1  0     0  0
 12 16  2  0     0  0
 12 17  1  0     0  0
 13 29  1  0     0  0
 14 18  2  0     0  0
 14 19  1  0     0  0
 14 25  1  0     0  0
 15 20  2  0     0  0
 15 21  1  0     0  0
 15 26  1  0     0  0
 16 20  1  0     0  0
 17 21  2  0     0  0
 18 22  1  0     0  0
 19 23  2  0     0  0
 22 24  2  0     0  0
 23 24  1  0     0  0
 25 27  1  0     0  0
 30 32  1  0     0  0
 31 33  1  0     0  0
M  END
> <standard_type>
pIC50

> <# Confs.>
25

> <canonical_smiles>
O=C(N1CC(C(NC(C2=CC=C(N3CCN(C)CC3)C=C2)=O)=NN4)=C4C1)[C@H](F)C5=CC=CC=C5

> <standard_relation>
=

> <Publication_ID>
nan

> <predicted_activity_value>
6.292429823902063

> <actual_activity_value>
6.522878745280337

> <Compound>
15

> <standard_units>
nM

> hash
7649752598964339451

$$$$
15_
XXILIB    08252103493D 0   0.00000     0.00000

 34 38  0     1  0            999 V2000
    6.2170   -1.2837    4.1475 F   0  0  0  0  0  1           0  0  0
   -0.3116    0.0000    2.2959 O   0  0  0  0  0  2           0  0  0
    3.5901    0.0140    5.1462 O   0  0  0  0  0  2           0  0  0
    3.3931    0.0019   -0.7454 N   0  0  0  0  0  3           0  0  0
    2.0987    0.0000   -1.1466 N   0  0  0  0  0  3           0  0  0
   -6.4390   -0.0657    0.5075 N   0  0  1  0  0  3           0  0  0
    0.0000    0.0000    0.0000 N   0  0  0  0  0  3           0  0  0
    3.7470    0.0090    2.8269 N   0  0  2  0  0  3           0  0  0
   -9.2692   -0.3693    0.2974 N   0  0  1  0  0  3           0  0  0
    1.3840    0.0000   -0.0000 C   0  0  0  0  0  4           0  0  0
    3.5006    0.0061    0.5950 C   0  0  0  0  0  4           0  0  0
   -5.0666   -0.0447    0.6547 C   0  0  0  0  0  4           0  0  0
    2.2422    0.0013    1.1104 C   0  0  0  0  0  4           0  0  0
    6.2903    0.7806    5.3271 C   0  0  0  0  0  4           0  0  0
   -2.2291   -0.0022    0.9550 C   0  0  0  0  0  4           0  0  0
   -4.2237    0.5099   -0.3262 C   0  0  0  0  0  4           0  0  0
   -4.4333   -0.5755    1.7934 C   0  0  0  0  0  4           0  0  0
    6.5460    0.1343    6.5439 C   0  0  0  0  0  4           0  0  0
    6.5552    2.1532    5.2190 C   0  0  0  0  0  4           0  0  0
   -2.8291    0.5336   -0.1852 C   0  0  0  0  0  4           0  0  0
   -3.0405   -0.5573    1.9458 C   0  0  0  0  0  4           0  0  0
    7.0447    0.8496    7.6345 C   0  0  0  0  0  4           0  0  0
    7.0541    2.8668    6.3102 C   0  0  0  0  0  4           0  0  0
    7.2972    2.2152    7.5177 C   0  0  0  0  0  4           0  0  0
    5.7716    0.0089    4.1457 C   0  0  2  0  0  4           0  0  0
   -0.7592    0.0000    1.1511 C   0  0  0  0  0  4           0  0  0
    4.2583    0.0168    4.1132 C   0  0  0  0  0  4           0  0  0
    4.5778    0.0126    1.5794 C   0  0  0  0  0  4           0  0  0
    2.2697    0.0003    2.5765 C   0  0  0  0  0  4           0  0  0
   -7.0193   -0.7751   -0.6380 C   0  0  0  0  0  4           0  0  0
   -7.2829    0.0664    1.7001 C   0  0  0  0  0  4           0  0  0
   -8.4466   -0.2997   -0.9153 C   0  0  0  0  0  4           0  0  0
   -8.6995    0.5068    1.3270 C   0  0  0  0  0  4           0  0  0
  -10.6499    0.0134    0.0054 C   0  0  0  0  0  4           0  0  0
  1 25  1  0     0  0
  2 26  2  0     0  0
  3 27  2  0     0  0
  4  5  1  0     0  0
  4 11  1  0     0  0
  5 10  2  0     0  0
  6 12  1  0     0  0
  6 30  1  0     0  0
  6 31  1  0     0  0
  7 10  1  0     0  0
  7 26  1  0     0  0
  8 27  1  0     0  0
  8 28  1  0     0  0
  8 29  1  0     0  0
  9 32  1  0     0  0
  9 33  1  0     0  0
  9 34  1  0     0  0
 10 13  1  0     0  0
 11 13  2  0     0  0
 11 28  1  0     0  0
 12 16  2  0     0  0
 12 17  1  0     0  0
 13 29  1  0     0  0
 14 18  2  0     0  0
 14 19  1  0     0  0
 14 25  1  0     0  0
 15 20  2  0     0  0
 15 21  1  0     0  0
 15 26  1  0     0  0
 16 20  1  0     0  0
 17 21  2  0     0  0
 18 22  1  0     0  0
 19 23  2  0     0  0
 22 24  2  0     0  0
 23 24  1  0     0  0
 25 27  1  0     0  0
 30 32  1  0     0  0
 31 33  1  0     0  0
M  END
> <standard_type>
pIC50

> <# Confs.>
25

> <canonical_smiles>
O=C(N1CC(C(NC(C2=CC=C(N3CCN(C)CC3)C=C2)=O)=NN4)=C4C1)[C@H](F)C5=CC=CC=C5

> <standard_relation>
=

> <Publication_ID>
nan

> <predicted_activity_value>
6.292429823902063

> <actual_activity_value>
6.522878745280337

> <Compound>
15

> <standard_units>
nM

> hash
7649752598964339451

$$$$
15_
XXILIB    08252103493D 0   0.00000     0.00000

 34 38  0     1  0            999 V2000
    2.4002    1.1425    5.0130 F   0  0  0  0  0  1           0  0  0
   -0.3116    0.0000    2.2959 O   0  0  0  0  0  2           0  0  0
    5.4534    0.0278    4.4054 O   0  0  0  0  0  2           0  0  0
    3.3931    0.0019   -0.7454 N   0  0  0  0  0  3           0  0  0
    2.0987    0.0000   -1.1466 N   0  0  0  0  0  3           0  0  0
   -6.4093    0.0484    0.2836 N   0  0  1  0  0  3           0  0  0
    0.0000    0.0000    0.0000 N   0  0  0  0  0  3           0  0  0
    3.7470    0.0090    2.8269 N   0  0  2  0  0  3           0  0  0
   -8.2775   -0.6696   -1.7298 N   0  0  1  0  0  3           0  0  0
    1.3840   -0.0000    0.0000 C   0  0  0  0  0  4           0  0  0
    3.5006    0.0061    0.5950 C   0  0  0  0  0  4           0  0  0
   -5.0463    0.0316    0.5012 C   0  0  0  0  0  4           0  0  0
    2.2422    0.0013    1.1104 C   0  0  0  0  0  4           0  0  0
    3.7790   -0.0344    6.5532 C   0  0  0  0  0  4           0  0  0
   -2.2291   -0.0022    0.9550 C   0  0  0  0  0  4           0  0  0
   -4.4882   -0.5209    1.6690 C   0  0  0  0  0  4           0  0  0
   -4.1383    0.5648   -0.4318 C   0  0  0  0  0  4           0  0  0
    4.0853    1.1397    7.2541 C   0  0  0  0  0  4           0  0  0
    4.0109   -1.2725    7.1692 C   0  0  0  0  0  4           0  0  0
   -3.1053   -0.5404    1.8984 C   0  0  0  0  0  4           0  0  0
   -2.7542    0.5508   -0.2140 C   0  0  0  0  0  4           0  0  0
    4.6246    1.0762    8.5404 C   0  0  0  0  0  4           0  0  0
    4.5498   -1.3341    8.4554 C   0  0  0  0  0  4           0  0  0
    4.8578   -0.1601    9.1399 C   0  0  0  0  0  4           0  0  0
    3.1803    0.0315    5.1756 C   0  0  2  0  0  4           0  0  0
   -0.7592    0.0000    1.1511 C   0  0  0  0  0  4           0  0  0
    4.2583    0.0168    4.1132 C   0  0  0  0  0  4           0  0  0
    4.5778    0.0126    1.5794 C   0  0  0  0  0  4           0  0  0
    2.2697    0.0003    2.5765 C   0  0  0  0  0  4           0  0  0
   -7.0532    1.1007   -0.5042 C   0  0  0  0  0  4           0  0  0
   -7.2365   -1.1456    0.4668 C   0  0  0  0  0  4           0  0  0
   -7.4305    0.5274   -1.8756 C   0  0  0  0  0  4           0  0  0
   -7.6124   -1.6998   -0.9126 C   0  0  0  0  0  4           0  0  0
   -8.6354   -1.2092   -3.0409 C   0  0  0  0  0  4           0  0  0
  1 25  1  0     0  0
  2 26  2  0     0  0
  3 27  2  0     0  0
  4  5  1  0     0  0
  4 11  1  0     0  0
  5 10  2  0     0  0
  6 12  1  0     0  0
  6 30  1  0     0  0
  6 31  1  0     0  0
  7 10  1  0     0  0
  7 26  1  0     0  0
  8 27  1  0     0  0
  8 28  1  0     0  0
  8 29  1  0     0  0
  9 32  1  0     0  0
  9 33  1  0     0  0
  9 34  1  0     0  0
 10 13  1  0     0  0
 11 13  2  0     0  0
 11 28  1  0     0  0
 12 16  2  0     0  0
 12 17  1  0     0  0
 13 29  1  0     0  0
 14 18  2  0     0  0
 14 19  1  0     0  0
 14 25  1  0     0  0
 15 20  2  0     0  0
 15 21  1  0     0  0
 15 26  1  0     0  0
 16 20  1  0     0  0
 17 21  2  0     0  0
 18 22  1  0     0  0
 19 23  2  0     0  0
 22 24  2  0     0  0
 23 24  1  0     0  0
 25 27  1  0     0  0
 30 32  1  0     0  0
 31 33  1  0     0  0
M  END
> <standard_type>
pIC50

> <# Confs.>
25

> <canonical_smiles>
O=C(N1CC(C(NC(C2=CC=C(N3CCN(C)CC3)C=C2)=O)=NN4)=C4C1)[C@H](F)C5=CC=CC=C5

> <standard_relation>
=

> <Publication_ID>
nan

> <predicted_activity_value>
6.292429823902063

> <actual_activity_value>
6.522878745280337

> <Compound>
15

> <standard_units>
nM

> hash
7649752598964339451

$$$$
15_
XXILIB    08252103493D 0   0.00000     0.00000

 34 38  0     1  0            999 V2000
    3.6397    0.6992    6.2767 F   0  0  0  0  0  1           0  0  0
   -0.3116    0.0000    2.2959 O   0  0  0  0  0  2           0  0  0
    5.4534    0.0278    4.4054 O   0  0  0  0  0  2           0  0  0
    3.3931    0.0019   -0.7454 N   0  0  0  0  0  3           0  0  0
    2.0987    0.0000   -1.1466 N   0  0  0  0  0  3           0  0  0
   -6.4390   -0.0657    0.5075 N   0  0  1  0  0  3           0  0  0
    0.0000    0.0000    0.0000 N   0  0  0  0  0  3           0  0  0
    3.7470    0.0090    2.8269 N   0  0  2  0  0  3           0  0  0
   -9.2925   -0.0159    0.4635 N   0  0  1  0  0  3           0  0  0
    1.3840   -0.0000    0.0000 C   0  0  0  0  0  4           0  0  0
    3.5006    0.0061    0.5950 C   0  0  0  0  0  4           0  0  0
   -5.0666   -0.0447    0.6547 C   0  0  0  0  0  4           0  0  0
    2.2422    0.0013    1.1104 C   0  0  0  0  0  4           0  0  0
    2.7362   -1.3647    5.5134 C   0  0  0  0  0  4           0  0  0
   -2.2291   -0.0022    0.9550 C   0  0  0  0  0  4           0  0  0
   -4.2237    0.5099   -0.3262 C   0  0  0  0  0  4           0  0  0
   -4.4333   -0.5755    1.7934 C   0  0  0  0  0  4           0  0  0
    1.4159   -1.6162    5.9099 C   0  0  0  0  0  4           0  0  0
    3.6293   -2.4403    5.4065 C   0  0  0  0  0  4           0  0  0
   -2.8291    0.5336   -0.1852 C   0  0  0  0  0  4           0  0  0
   -3.0405   -0.5573    1.9458 C   0  0  0  0  0  4           0  0  0
    1.0010   -2.9162    6.2058 C   0  0  0  0  0  4           0  0  0
    3.2127   -3.7393    5.7024 C   0  0  0  0  0  4           0  0  0
    1.8994   -3.9767    6.1034 C   0  0  0  0  0  4           0  0  0
    3.1803    0.0315    5.1756 C   0  0  2  0  0  4           0  0  0
   -0.7592    0.0000    1.1511 C   0  0  0  0  0  4           0  0  0
    4.2583    0.0168    4.1132 C   0  0  0  0  0  4           0  0  0
    4.5778    0.0126    1.5794 C   0  0  0  0  0  4           0  0  0
    2.2697    0.0003    2.5765 C   0  0  0  0  0  4           0  0  0
   -7.2030   -1.1534    1.1283 C   0  0  0  0  0  4           0  0  0
   -7.1487    1.1992    0.2877 C   0  0  0  0  0  4           0  0  0
   -8.5810   -1.2989    0.4803 C   0  0  0  0  0  4           0  0  0
   -8.5291    0.9574   -0.3254 C   0  0  0  0  0  4           0  0  0
  -10.6370   -0.1803   -0.0870 C   0  0  0  0  0  4           0  0  0
  1 25  1  0     0  0
  2 26  2  0     0  0
  3 27  2  0     0  0
  4  5  1  0     0  0
  4 11  1  0     0  0
  5 10  2  0     0  0
  6 12  1  0     0  0
  6 30  1  0     0  0
  6 31  1  0     0  0
  7 10  1  0     0  0
  7 26  1  0     0  0
  8 27  1  0     0  0
  8 28  1  0     0  0
  8 29  1  0     0  0
  9 32  1  0     0  0
  9 33  1  0     0  0
  9 34  1  0     0  0
 10 13  1  0     0  0
 11 13  2  0     0  0
 11 28  1  0     0  0
 12 16  2  0     0  0
 12 17  1  0     0  0
 13 29  1  0     0  0
 14 18  2  0     0  0
 14 19  1  0     0  0
 14 25  1  0     0  0
 15 20  2  0     0  0
 15 21  1  0     0  0
 15 26  1  0     0  0
 16 20  1  0     0  0
 17 21  2  0     0  0
 18 22  1  0     0  0
 19 23  2  0     0  0
 22 24  2  0     0  0
 23 24  1  0     0  0
 25 27  1  0     0  0
 30 32  1  0     0  0
 31 33  1  0     0  0
M  END
> <standard_type>
pIC50

> <# Confs.>
25

> <canonical_smiles>
O=C(N1CC(C(NC(C2=CC=C(N3CCN(C)CC3)C=C2)=O)=NN4)=C4C1)[C@H](F)C5=CC=CC=C5

> <standard_relation>
=

> <Publication_ID>
nan

> <predicted_activity_value>
6.292429823902063

> <actual_activity_value>
6.522878745280337

> <Compound>
15

> <standard_units>
nM

> hash
7649752598964339451

$$$$
15_
XXILIB    08252103493D 0   0.00000     0.00000

 34 38  0     1  0            999 V2000
    3.6397    0.6992    6.2767 F   0  0  0  0  0  1           0  0  0
   -0.3116    0.0000    2.2959 O   0  0  0  0  0  2           0  0  0
    5.4534    0.0278    4.4054 O   0  0  0  0  0  2           0  0  0
    3.3931    0.0019   -0.7454 N   0  0  0  0  0  3           0  0  0
    2.0987    0.0000   -1.1466 N   0  0  0  0  0  3           0  0  0
   -6.4391    0.0492    0.5071 N   0  0  1  0  0  3           0  0  0
    0.0000    0.0000    0.0000 N   0  0  0  0  0  3           0  0  0
    3.7470    0.0090    2.8269 N   0  0  2  0  0  3           0  0  0
   -9.2690    0.3465    0.2834 N   0  0  1  0  0  3           0  0  0
    1.3840   -0.0000    0.0000 C   0  0  0  0  0  4           0  0  0
    3.5006    0.0061    0.5950 C   0  0  0  0  0  4           0  0  0
   -5.0666    0.0337    0.6537 C   0  0  0  0  0  4           0  0  0
    2.2422    0.0013    1.1104 C   0  0  0  0  0  4           0  0  0
    2.7362   -1.3647    5.5134 C   0  0  0  0  0  4           0  0  0
   -2.2291   -0.0022    0.9550 C   0  0  0  0  0  4           0  0  0
   -4.2218   -0.5167   -0.3282 C   0  0  0  0  0  4           0  0  0
   -4.4348    0.5675    1.7918 C   0  0  0  0  0  4           0  0  0
    1.4159   -1.6162    5.9099 C   0  0  0  0  0  4           0  0  0
    3.6293   -2.4403    5.4065 C   0  0  0  0  0  4           0  0  0
   -2.8273   -0.5380   -0.1862 C   0  0  0  0  0  4           0  0  0
   -3.0421    0.5524    1.9448 C   0  0  0  0  0  4           0  0  0
    1.0010   -2.9162    6.2058 C   0  0  0  0  0  4           0  0  0
    3.2127   -3.7393    5.7024 C   0  0  0  0  0  4           0  0  0
    1.8994   -3.9767    6.1034 C   0  0  0  0  0  4           0  0  0
    3.1803    0.0315    5.1756 C   0  0  2  0  0  4           0  0  0
   -0.7592    0.0000    1.1511 C   0  0  0  0  0  4           0  0  0
    4.2583    0.0168    4.1132 C   0  0  0  0  0  4           0  0  0
    4.5778    0.0126    1.5794 C   0  0  0  0  0  4           0  0  0
    2.2697    0.0003    2.5765 C   0  0  0  0  0  4           0  0  0
   -7.2818   -0.0111    1.7065 C   0  0  0  0  0  4           0  0  0
   -7.0193    0.6918   -0.6771 C   0  0  0  0  0  4           0  0  0
   -8.6998   -0.4697    1.3614 C   0  0  0  0  0  4           0  0  0
   -8.4481    0.2048   -0.9243 C   0  0  0  0  0  4           0  0  0
  -10.6506   -0.0486    0.0133 C   0  0  0  0  0  4           0  0  0
  1 25  1  0     0  0
  2 26  2  0     0  0
  3 27  2  0     0  0
  4  5  1  0     0  0
  4 11  1  0     0  0
  5 10  2  0     0  0
  6 12  1  0     0  0
  6 30  1  0     0  0
  6 31  1  0     0  0
  7 10  1  0     0  0
  7 26  1  0     0  0
  8 27  1  0     0  0
  8 28  1  0     0  0
  8 29  1  0     0  0
  9 32  1  0     0  0
  9 33  1  0     0  0
  9 34  1  0     0  0
 10 13  1  0     0  0
 11 13  2  0     0  0
 11 28  1  0     0  0
 12 16  2  0     0  0
 12 17  1  0     0  0
 13 29  1  0     0  0
 14 18  2  0     0  0
 14 19  1  0     0  0
 14 25  1  0     0  0
 15 20  2  0     0  0
 15 21  1  0     0  0
 15 26  1  0     0  0
 16 20  1  0     0  0
 17 21  2  0     0  0
 18 22  1  0     0  0
 19 23  2  0     0  0
 22 24  2  0     0  0
 23 24  1  0     0  0
 25 27  1  0     0  0
 30 32  1  0     0  0
 31 33  1  0     0  0
M  END
> <standard_type>
pIC50

> <# Confs.>
25

> <canonical_smiles>
O=C(N1CC(C(NC(C2=CC=C(N3CCN(C)CC3)C=C2)=O)=NN4)=C4C1)[C@H](F)C5=CC=CC=C5

> <standard_relation>
=

> <Publication_ID>
nan

> <predicted_activity_value>
6.292429823902063

> <actual_activity_value>
6.522878745280337

> <Compound>
15

> <standard_units>
nM

> hash
7649752598964339451

$$$$
15_
XXILIB    08252103493D 0   0.00000     0.00000

 34 38  0     1  0            999 V2000
    6.4956    0.0732    3.3915 F   0  0  0  0  0  1           0  0  0
   -0.3116    0.0000    2.2959 O   0  0  0  0  0  2           0  0  0
    3.7192   -0.4864    5.0980 O   0  0  0  0  0  2           0  0  0
    3.3931    0.0019   -0.7454 N   0  0  0  0  0  3           0  0  0
    2.0987    0.0000   -1.1466 N   0  0  0  0  0  3           0  0  0
   -6.4390   -0.0657    0.5075 N   0  0  1  0  0  3           0  0  0
    0.0000    0.0000    0.0000 N   0  0  0  0  0  3           0  0  0
    3.7470    0.0090    2.8269 N   0  0  2  0  0  3           0  0  0
   -9.2692   -0.3693    0.2974 N   0  0  1  0  0  3           0  0  0
    1.3840    0.0000   -0.0000 C   0  0  0  0  0  4           0  0  0
    3.5006    0.0061    0.5950 C   0  0  0  0  0  4           0  0  0
   -5.0666   -0.0447    0.6547 C   0  0  0  0  0  4           0  0  0
    2.2422    0.0013    1.1104 C   0  0  0  0  0  4           0  0  0
    6.0833    0.7567    5.6324 C   0  0  0  0  0  4           0  0  0
   -2.2291   -0.0022    0.9550 C   0  0  0  0  0  4           0  0  0
   -4.2237    0.5099   -0.3262 C   0  0  0  0  0  4           0  0  0
   -4.4333   -0.5755    1.7934 C   0  0  0  0  0  4           0  0  0
    6.8932   -0.2648    6.1464 C   0  0  0  0  0  4           0  0  0
    5.7543    1.8419    6.4571 C   0  0  0  0  0  4           0  0  0
   -2.8291    0.5336   -0.1852 C   0  0  0  0  0  4           0  0  0
   -3.0405   -0.5573    1.9458 C   0  0  0  0  0  4           0  0  0
    7.3540   -0.2081    7.4632 C   0  0  0  0  0  4           0  0  0
    6.2162    1.8972    7.7732 C   0  0  0  0  0  4           0  0  0
    7.0144    0.8717    8.2763 C   0  0  0  0  0  4           0  0  0
    5.6018    0.7075    4.2089 C   0  0  2  0  0  4           0  0  0
   -0.7592    0.0000    1.1511 C   0  0  0  0  0  4           0  0  0
    4.2583    0.0168    4.1132 C   0  0  0  0  0  4           0  0  0
    4.5778    0.0126    1.5794 C   0  0  0  0  0  4           0  0  0
    2.2697    0.0003    2.5765 C   0  0  0  0  0  4           0  0  0
   -7.0193   -0.7751   -0.6380 C   0  0  0  0  0  4           0  0  0
   -7.2829    0.0664    1.7001 C   0  0  0  0  0  4           0  0  0
   -8.4466   -0.2997   -0.9153 C   0  0  0  0  0  4           0  0  0
   -8.6995    0.5068    1.3270 C   0  0  0  0  0  4           0  0  0
  -10.6499    0.0134    0.0054 C   0  0  0  0  0  4           0  0  0
  1 25  1  0     0  0
  2 26  2  0     0  0
  3 27  2  0     0  0
  4  5  1  0     0  0
  4 11  1  0     0  0
  5 10  2  0     0  0
  6 12  1  0     0  0
  6 30  1  0     0  0
  6 31  1  0     0  0
  7 10  1  0     0  0
  7 26  1  0     0  0
  8 27  1  0     0  0
  8 28  1  0     0  0
  8 29  1  0     0  0
  9 32  1  0     0  0
  9 33  1  0     0  0
  9 34  1  0     0  0
 10 13  1  0     0  0
 11 13  2  0     0  0
 11 28  1  0     0  0
 12 16  2  0     0  0
 12 17  1  0     0  0
 13 29  1  0     0  0
 14 18  2  0     0  0
 14 19  1  0     0  0
 14 25  1  0     0  0
 15 20  2  0     0  0
 15 21  1  0     0  0
 15 26  1  0     0  0
 16 20  1  0     0  0
 17 21  2  0     0  0
 18 22  1  0     0  0
 19 23  2  0     0  0
 22 24  2  0     0  0
 23 24  1  0     0  0
 25 27  1  0     0  0
 30 32  1  0     0  0
 31 33  1  0     0  0
M  END
> <standard_type>
pIC50

> <# Confs.>
25

> <canonical_smiles>
O=C(N1CC(C(NC(C2=CC=C(N3CCN(C)CC3)C=C2)=O)=NN4)=C4C1)[C@H](F)C5=CC=CC=C5

> <standard_relation>
=

> <Publication_ID>
nan

> <predicted_activity_value>
6.292429823902063

> <actual_activity_value>
6.522878745280337

> <Compound>
15

> <standard_units>
nM

> hash
7649752598964339451

$$$$
15_
XXILIB    08252103493D 0   0.00000     0.00000

 34 38  0     1  0            999 V2000
    6.2318   -1.1070    3.5036 F   0  0  0  0  0  1           0  0  0
   -0.3116    0.0000    2.2959 O   0  0  0  0  0  2           0  0  0
    3.5901    0.0140    5.1462 O   0  0  0  0  0  2           0  0  0
    3.3931    0.0019   -0.7454 N   0  0  0  0  0  3           0  0  0
    2.0987    0.0000   -1.1466 N   0  0  0  0  0  3           0  0  0
   -6.4093    0.0484    0.2836 N   0  0  1  0  0  3           0  0  0
    0.0000    0.0000    0.0000 N   0  0  0  0  0  3           0  0  0
    3.7470    0.0090    2.8269 N   0  0  2  0  0  3           0  0  0
   -8.3979    1.7682   -0.7875 N   0  0  1  0  0  3           0  0  0
    1.3840    0.0000   -0.0000 C   0  0  0  0  0  4           0  0  0
    3.5006    0.0061    0.5950 C   0  0  0  0  0  4           0  0  0
   -5.0463    0.0316    0.5012 C   0  0  0  0  0  4           0  0  0
    2.2422    0.0013    1.1104 C   0  0  0  0  0  4           0  0  0
    6.2817    0.0918    5.5576 C   0  0  0  0  0  4           0  0  0
   -2.2291   -0.0022    0.9550 C   0  0  0  0  0  4           0  0  0
   -4.4882   -0.5209    1.6690 C   0  0  0  0  0  4           0  0  0
   -4.1383    0.5648   -0.4318 C   0  0  0  0  0  4           0  0  0
    6.5452   -1.0736    6.2897 C   0  0  0  0  0  4           0  0  0
    6.5309    1.3373    6.1515 C   0  0  0  0  0  4           0  0  0
   -3.1053   -0.5404    1.8984 C   0  0  0  0  0  4           0  0  0
   -2.7542    0.5508   -0.2140 C   0  0  0  0  0  4           0  0  0
    7.0359   -0.9943    7.5945 C   0  0  0  0  0  4           0  0  0
    7.0218    1.4147    7.4559 C   0  0  0  0  0  4           0  0  0
    7.2727    0.2493    8.1774 C   0  0  0  0  0  4           0  0  0
    5.7716    0.0089    4.1457 C   0  0  2  0  0  4           0  0  0
   -0.7592    0.0000    1.1511 C   0  0  0  0  0  4           0  0  0
    4.2583    0.0168    4.1132 C   0  0  0  0  0  4           0  0  0
    4.5778    0.0126    1.5794 C   0  0  0  0  0  4           0  0  0
    2.2697    0.0003    2.5765 C   0  0  0  0  0  4           0  0  0
   -7.3287    0.7342    1.1931 C   0  0  0  0  0  4           0  0  0
   -6.9870   -0.2535   -1.0273 C   0  0  0  0  0  4           0  0  0
   -7.7961    2.0359    0.5307 C   0  0  0  0  0  4           0  0  0
   -7.4574    1.0564   -1.6708 C   0  0  0  0  0  4           0  0  0
   -8.8434    3.0131   -1.4119 C   0  0  0  0  0  4           0  0  0
  1 25  1  0     0  0
  2 26  2  0     0  0
  3 27  2  0     0  0
  4  5  1  0     0  0
  4 11  1  0     0  0
  5 10  2  0     0  0
  6 12  1  0     0  0
  6 30  1  0     0  0
  6 31  1  0     0  0
  7 10  1  0     0  0
  7 26  1  0     0  0
  8 27  1  0     0  0
  8 28  1  0     0  0
  8 29  1  0     0  0
  9 32  1  0     0  0
  9 33  1  0     0  0
  9 34  1  0     0  0
 10 13  1  0     0  0
 11 13  2  0     0  0
 11 28  1  0     0  0
 12 16  2  0     0  0
 12 17  1  0     0  0
 13 29  1  0     0  0
 14 18  2  0     0  0
 14 19  1  0     0  0
 14 25  1  0     0  0
 15 20  2  0     0  0
 15 21  1  0     0  0
 15 26  1  0     0  0
 16 20  1  0     0  0
 17 21  2  0     0  0
 18 22  1  0     0  0
 19 23  2  0     0  0
 22 24  2  0     0  0
 23 24  1  0     0  0
 25 27  1  0     0  0
 30 32  1  0     0  0
 31 33  1  0     0  0
M  END
> <standard_type>
pIC50

> <# Confs.>
25

> <canonical_smiles>
O=C(N1CC(C(NC(C2=CC=C(N3CCN(C)CC3)C=C2)=O)=NN4)=C4C1)[C@H](F)C5=CC=CC=C5

> <standard_relation>
=

> <Publication_ID>
nan

> <predicted_activity_value>
6.292429823902063

> <actual_activity_value>
6.522878745280337

> <Compound>
15

> <standard_units>
nM

> hash
7649752598964339451

$$$$
15_
XXILIB    08252103493D 0   0.00000     0.00000

 34 38  0     1  0            999 V2000
    3.3060    1.1636    5.9317 F   0  0  0  0  0  1           0  0  0
   -0.3116    0.0000    2.2959 O   0  0  0  0  0  2           0  0  0
    5.4534    0.0278    4.4054 O   0  0  0  0  0  2           0  0  0
    3.3931    0.0019   -0.7454 N   0  0  0  0  0  3           0  0  0
    2.0987    0.0000   -1.1466 N   0  0  0  0  0  3           0  0  0
   -6.4391    0.0492    0.5071 N   0  0  1  0  0  3           0  0  0
    0.0000    0.0000    0.0000 N   0  0  0  0  0  3           0  0  0
    3.7470    0.0090    2.8269 N   0  0  2  0  0  3           0  0  0
   -9.2690    0.3465    0.2834 N   0  0  1  0  0  3           0  0  0
    1.3840   -0.0000    0.0000 C   0  0  0  0  0  4           0  0  0
    3.5006    0.0061    0.5950 C   0  0  0  0  0  4           0  0  0
   -5.0666    0.0337    0.6537 C   0  0  0  0  0  4           0  0  0
    2.2422    0.0013    1.1104 C   0  0  0  0  0  4           0  0  0
    3.2358   -1.2125    6.0183 C   0  0  0  0  0  4           0  0  0
   -2.2291   -0.0022    0.9550 C   0  0  0  0  0  4           0  0  0
   -4.2218   -0.5167   -0.3282 C   0  0  0  0  0  4           0  0  0
   -4.4348    0.5675    1.7918 C   0  0  0  0  0  4           0  0  0
    3.9953   -1.2425    7.1956 C   0  0  0  0  0  4           0  0  0
    2.5031   -2.3511    5.6542 C   0  0  0  0  0  4           0  0  0
   -2.8273   -0.5380   -0.1862 C   0  0  0  0  0  4           0  0  0
   -3.0421    0.5524    1.9448 C   0  0  0  0  0  4           0  0  0
    4.0311   -2.3929    7.9859 C   0  0  0  0  0  4           0  0  0
    2.5397   -3.5003    6.4457 C   0  0  0  0  0  4           0  0  0
    3.3047   -3.5215    7.6103 C   0  0  0  0  0  4           0  0  0
    3.1803    0.0315    5.1756 C   0  0  2  0  0  4           0  0  0
   -0.7592    0.0000    1.1511 C   0  0  0  0  0  4           0  0  0
    4.2583    0.0168    4.1132 C   0  0  0  0  0  4           0  0  0
    4.5778    0.0126    1.5794 C   0  0  0  0  0  4           0  0  0
    2.2697    0.0003    2.5765 C   0  0  0  0  0  4           0  0  0
   -7.2818   -0.0111    1.7065 C   0  0  0  0  0  4           0  0  0
   -7.0193    0.6918   -0.6771 C   0  0  0  0  0  4           0  0  0
   -8.6998   -0.4697    1.3614 C   0  0  0  0  0  4           0  0  0
   -8.4481    0.2048   -0.9243 C   0  0  0  0  0  4           0  0  0
  -10.6506   -0.0486    0.0133 C   0  0  0  0  0  4           0  0  0
  1 25  1  0     0  0
  2 26  2  0     0  0
  3 27  2  0     0  0
  4  5  1  0     0  0
  4 11  1  0     0  0
  5 10  2  0     0  0
  6 12  1  0     0  0
  6 30  1  0     0  0
  6 31  1  0     0  0
  7 10  1  0     0  0
  7 26  1  0     0  0
  8 27  1  0     0  0
  8 28  1  0     0  0
  8 29  1  0     0  0
  9 32  1  0     0  0
  9 33  1  0     0  0
  9 34  1  0     0  0
 10 13  1  0     0  0
 11 13  2  0     0  0
 11 28  1  0     0  0
 12 16  2  0     0  0
 12 17  1  0     0  0
 13 29  1  0     0  0
 14 18  2  0     0  0
 14 19  1  0     0  0
 14 25  1  0     0  0
 15 20  2  0     0  0
 15 21  1  0     0  0
 15 26  1  0     0  0
 16 20  1  0     0  0
 17 21  2  0     0  0
 18 22  1  0     0  0
 19 23  2  0     0  0
 22 24  2  0     0  0
 23 24  1  0     0  0
 25 27  1  0     0  0
 30 32  1  0     0  0
 31 33  1  0     0  0
M  END
> <standard_type>
pIC50

> <# Confs.>
25

> <canonical_smiles>
O=C(N1CC(C(NC(C2=CC=C(N3CCN(C)CC3)C=C2)=O)=NN4)=C4C1)[C@H](F)C5=CC=CC=C5

> <standard_relation>
=

> <Publication_ID>
nan

> <predicted_activity_value>
6.292429823902063

> <actual_activity_value>
6.522878745280337

> <Compound>
15

> <standard_units>
nM

> hash
7649752598964339451

$$$$
14_
XXILIB    08252103493D 0   0.00000     0.00000

 37 41  0     1  0            999 V2000
    2.0098   -0.3950   -6.9259 S   0  0  1  0  0  6           0  0  0
    3.3437   -0.7867   -7.3397 O   0  0  0  0  0  2           0  0  0
    0.8587   -0.6810   -7.7617 O   0  0  0  0  0  2           0  0  0
   -3.0326    0.2836    0.0281 O   0  0  0  0  0  2           0  0  0
    1.7303   -0.9669   -5.3341 N   0  0  0  0  0  3           0  0  0
   -2.7922    0.1530   -2.2932 N   0  0  0  0  0  3           0  0  0
    1.3753   -0.0000    0.0000 N   0  0  0  0  0  3           0  0  0
    5.4436    3.4903   -3.7549 N   0  0  1  0  0  3           0  0  0
    0.5418   -0.5832   -4.6213 C   0  0  0  0  0  4           0  0  0
   -1.7401   -0.0457   -3.1832 C   0  0  0  0  0  4           0  0  0
    2.2955    0.5267   -0.9123 C   0  0  0  0  0  4           0  0  0
   -0.5289   -0.1810   -2.5011 C   0  0  0  0  0  4           0  0  0
   -0.5525    0.0000    1.3572 C   0  0  0  0  0  4           0  0  0
    4.2238    1.5242   -2.7348 C   0  0  0  0  0  4           0  0  0
    0.6139   -0.4977   -3.2190 C   0  0  0  0  0  4           0  0  0
   -0.6936   -0.4309   -5.2805 C   0  0  0  0  0  4           0  0  0
   -1.8532   -0.1554   -4.5570 C   0  0  0  0  0  4           0  0  0
    2.0296    1.6591   -1.6965 C   0  0  0  0  0  4           0  0  0
    3.5434   -0.0984   -1.0614 C   0  0  0  0  0  4           0  0  0
   -0.8195    1.2094    2.0131 C   0  0  0  0  0  4           0  0  0
   -0.8140   -1.2101    2.0145 C   0  0  0  0  0  4           0  0  0
    2.9800    2.1500   -2.5984 C   0  0  0  0  0  4           0  0  0
    4.4949    0.3908   -1.9614 C   0  0  0  0  0  4           0  0  0
   -1.3475    1.2066    3.3055 C   0  0  0  0  0  4           0  0  0
   -1.3430   -1.2085    3.3063 C   0  0  0  0  0  4           0  0  0
   -1.6104   -0.0012    3.9503 C   0  0  0  0  0  4           0  0  0
    2.0298    1.3595   -6.6166 C   0  0  0  0  0  4           0  0  0
   -2.3506    0.1527   -0.9722 C   0  0  0  0  0  4           0  0  0
    0.0000    0.0000    0.0000 C   0  0  0  0  0  4           0  0  0
    5.2361    2.0388   -3.7202 C   0  0  0  0  0  4           0  0  0
    5.9017    3.9631   -2.4380 C   0  0  0  0  0  4           0  0  0
    6.4025    3.8763   -4.8050 C   0  0  0  0  0  4           0  0  0
   -0.8384   -0.0207   -1.0635 C   0  0  0  0  0  4           0  0  0
    6.0656    5.4831   -2.4146 C   0  0  0  0  0  4           0  0  0
    6.5859    5.3945   -4.8625 C   0  0  0  0  0  4           0  0  0
    7.0096    5.9584   -3.5116 C   0  0  0  0  0  4           0  0  0
    2.4191    2.1414   -7.8557 C   0  0  0  0  0  4           0  0  0
  1  2  2  0     0  0
  1  3  2  0     0  0
  1  5  1  0     0  0
  1 27  1  0     0  0
  4 28  2  0     0  0
  5  9  1  0     0  0
  6 10  1  0     0  0
  6 28  1  0     0  0
  7 11  1  0     0  0
  7 29  1  0     0  0
  8 30  1  0     0  0
  8 31  1  0     0  0
  8 32  1  0     0  0
  9 15  2  0     0  0
  9 16  1  0     0  0
 10 12  2  0     0  0
 10 17  1  0     0  0
 11 18  1  0     0  0
 11 19  2  0     0  0
 12 15  1  0     0  0
 12 33  1  0     0  0
 13 20  2  0     0  0
 13 21  1  0     0  0
 13 29  1  0     0  0
 14 22  1  0     0  0
 14 23  2  0     0  0
 14 30  1  0     0  0
 16 17  2  0     0  0
 18 22  2  0     0  0
 19 23  1  0     0  0
 20 24  1  0     0  0
 21 25  2  0     0  0
 24 26  2  0     0  0
 25 26  1  0     0  0
 27 37  1  0     0  0
 28 33  1  0     0  0
 29 33  2  0     0  0
 31 34  1  0     0  0
 32 35  1  0     0  0
 34 36  1  0     0  0
 35 36  1  0     0  0
M  END
> <standard_type>
pIC50

> <# Confs.>
25

> <canonical_smiles>
O=C1NC2=C(C=C(NS(=O)(CC)=O)C=C2)/C1=C(C3=CC=CC=C3)/NC(C=C4)=CC=C4CN5CCCCC5

> <standard_relation>
=

> <Publication_ID>
nan

> <predicted_activity_value>
6.522878745280337

> <actual_activity_value>
6.6020599913279625

> <Compound>
14

> <standard_units>
nM

> hash
13289132667909043912

$$$$
14_
XXILIB    08252103493D 0   0.00000     0.00000

 37 41  0     1  0            999 V2000
    2.0098   -0.3950   -6.9259 S   0  0  1  0  0  6           0  0  0
    3.3437   -0.7867   -7.3397 O   0  0  0  0  0  2           0  0  0
    0.8587   -0.6810   -7.7617 O   0  0  0  0  0  2           0  0  0
   -3.0326    0.2836    0.0281 O   0  0  0  0  0  2           0  0  0
    1.7303   -0.9669   -5.3341 N   0  0  0  0  0  3           0  0  0
   -2.7922    0.1530   -2.2932 N   0  0  0  0  0  3           0  0  0
    1.3753   -0.0000    0.0000 N   0  0  0  0  0  3           0  0  0
    6.6194    2.1518   -3.2460 N   0  0  1  0  0  3           0  0  0
    0.5418   -0.5832   -4.6213 C   0  0  0  0  0  4           0  0  0
   -1.7401   -0.0457   -3.1832 C   0  0  0  0  0  4           0  0  0
    2.2955    0.5267   -0.9123 C   0  0  0  0  0  4           0  0  0
   -0.5289   -0.1810   -2.5011 C   0  0  0  0  0  4           0  0  0
   -0.5525    0.0000    1.3572 C   0  0  0  0  0  4           0  0  0
    4.2238    1.5242   -2.7348 C   0  0  0  0  0  4           0  0  0
    0.6139   -0.4977   -3.2190 C   0  0  0  0  0  4           0  0  0
   -0.6936   -0.4309   -5.2805 C   0  0  0  0  0  4           0  0  0
   -1.8532   -0.1554   -4.5570 C   0  0  0  0  0  4           0  0  0
    2.0296    1.6591   -1.6965 C   0  0  0  0  0  4           0  0  0
    3.5434   -0.0984   -1.0614 C   0  0  0  0  0  4           0  0  0
   -0.8195    1.2094    2.0131 C   0  0  0  0  0  4           0  0  0
   -0.8140   -1.2101    2.0145 C   0  0  0  0  0  4           0  0  0
    2.9800    2.1500   -2.5984 C   0  0  0  0  0  4           0  0  0
    4.4949    0.3908   -1.9614 C   0  0  0  0  0  4           0  0  0
   -1.3475    1.2066    3.3055 C   0  0  0  0  0  4           0  0  0
   -1.3430   -1.2085    3.3063 C   0  0  0  0  0  4           0  0  0
   -1.6104   -0.0012    3.9503 C   0  0  0  0  0  4           0  0  0
    2.0298    1.3595   -6.6166 C   0  0  0  0  0  4           0  0  0
   -2.3506    0.1527   -0.9722 C   0  0  0  0  0  4           0  0  0
    0.0000    0.0000    0.0000 C   0  0  0  0  0  4           0  0  0
    5.2361    2.0388   -3.7202 C   0  0  0  0  0  4           0  0  0
    7.4789    2.6672   -4.3248 C   0  0  0  0  0  4           0  0  0
    6.7155    3.0116   -2.0532 C   0  0  0  0  0  4           0  0  0
   -0.8384   -0.0207   -1.0635 C   0  0  0  0  0  4           0  0  0
    8.9430    2.7363   -3.8895 C   0  0  0  0  0  4           0  0  0
    8.1547    3.0948   -1.5399 C   0  0  0  0  0  4           0  0  0
    9.1098    3.5725   -2.6271 C   0  0  0  0  0  4           0  0  0
    2.4191    2.1414   -7.8557 C   0  0  0  0  0  4           0  0  0
  1  2  2  0     0  0
  1  3  2  0     0  0
  1  5  1  0     0  0
  1 27  1  0     0  0
  4 28  2  0     0  0
  5  9  1  0     0  0
  6 10  1  0     0  0
  6 28  1  0     0  0
  7 11  1  0     0  0
  7 29  1  0     0  0
  8 30  1  0     0  0
  8 31  1  0     0  0
  8 32  1  0     0  0
  9 15  2  0     0  0
  9 16  1  0     0  0
 10 12  2  0     0  0
 10 17  1  0     0  0
 11 18  1  0     0  0
 11 19  2  0     0  0
 12 15  1  0     0  0
 12 33  1  0     0  0
 13 20  2  0     0  0
 13 21  1  0     0  0
 13 29  1  0     0  0
 14 22  1  0     0  0
 14 23  2  0     0  0
 14 30  1  0     0  0
 16 17  2  0     0  0
 18 22  2  0     0  0
 19 23  1  0     0  0
 20 24  1  0     0  0
 21 25  2  0     0  0
 24 26  2  0     0  0
 25 26  1  0     0  0
 27 37  1  0     0  0
 28 33  1  0     0  0
 29 33  2  0     0  0
 31 34  1  0     0  0
 32 35  1  0     0  0
 34 36  1  0     0  0
 35 36  1  0     0  0
M  END
> <standard_type>
pIC50

> <# Confs.>
25

> <canonical_smiles>
O=C1NC2=C(C=C(NS(=O)(CC)=O)C=C2)/C1=C(C3=CC=CC=C3)/NC(C=C4)=CC=C4CN5CCCCC5

> <standard_relation>
=

> <Publication_ID>
nan

> <predicted_activity_value>
6.522878745280337

> <actual_activity_value>
6.6020599913279625

> <Compound>
14

> <standard_units>
nM

> hash
13289132667909043912

$$$$
14_
XXILIB    08252103493D 0   0.00000     0.00000

 37 41  0     1  0            999 V2000
    2.4338   -1.8377   -5.9219 S   0  0  1  0  0  6           0  0  0
    1.2796   -2.7163   -5.9227 O   0  0  0  0  0  2           0  0  0
    3.2928   -1.7386   -7.0870 O   0  0  0  0  0  2           0  0  0
   -3.0463    0.1214   -0.0891 O   0  0  0  0  0  2           0  0  0
    1.9414   -0.2723   -5.4263 N   0  0  0  0  0  3           0  0  0
   -2.7103    0.1360   -2.3982 N   0  0  0  0  0  3           0  0  0
    1.3753   -0.0000    0.0000 N   0  0  0  0  0  3           0  0  0
    6.3852   -4.0498    0.9481 N   0  0  1  0  0  3           0  0  0
    0.7454   -0.0984   -4.6470 C   0  0  0  0  0  4           0  0  0
   -1.6164    0.0748   -3.2553 C   0  0  0  0  0  4           0  0  0
    2.2955   -1.0535    0.0000 C   0  0  0  0  0  4           0  0  0
   -0.4194   -0.0095   -2.5372 C   0  0  0  0  0  4           0  0  0
   -0.6222    0.0000    1.3267 C   0  0  0  0  0  4           0  0  0
    4.2330   -3.1225   -0.0019 C   0  0  0  0  0  4           0  0  0
    0.7716   -0.1270   -3.2392 C   0  0  0  0  0  4           0  0  0
   -0.4795   -0.0277   -5.3359 C   0  0  0  0  0  4           0  0  0
   -1.6796    0.0687   -4.6371 C   0  0  0  0  0  4           0  0  0
    1.9109   -2.4025    0.0000 C   0  0  0  0  0  4           0  0  0
    3.6684   -0.7608    0.0031 C   0  0  0  0  0  4           0  0  0
   -0.9229    1.2094    1.9678 C   0  0  0  0  0  4           0  0  0
   -0.9175   -1.2101    1.9695 C   0  0  0  0  0  4           0  0  0
    2.8669   -3.4241    0.0022 C   0  0  0  0  0  4           0  0  0
    4.6254   -1.7800    0.0044 C   0  0  0  0  0  4           0  0  0
   -1.5173    1.2066    3.2311 C   0  0  0  0  0  4           0  0  0
   -1.5128   -1.2085    3.2321 C   0  0  0  0  0  4           0  0  0
   -1.8134   -0.0012    3.8613 C   0  0  0  0  0  4           0  0  0
    3.4567   -2.2854   -4.5336 C   0  0  0  0  0  4           0  0  0
   -2.3174    0.0934   -1.0641 C   0  0  0  0  0  4           0  0  0
    0.0000   -0.0000    0.0000 C   0  0  0  0  0  4           0  0  0
    5.2598   -4.2205    0.0231 C   0  0  0  0  0  4           0  0  0
    5.8873   -3.9460    2.3298 C   0  0  0  0  0  4           0  0  0
    7.3564   -5.1516    0.8300 C   0  0  0  0  0  4           0  0  0
   -0.7924    0.0151   -1.1011 C   0  0  0  0  0  4           0  0  0
    7.0273   -3.7000    3.3187 C   0  0  0  0  0  4           0  0  0
    8.5474   -4.9486    1.7693 C   0  0  0  0  0  4           0  0  0
    8.0970   -4.7796    3.2153 C   0  0  0  0  0  4           0  0  0
    3.9238   -3.7249   -4.6241 C   0  0  0  0  0  4           0  0  0
  1  2  2  0     0  0
  1  3  2  0     0  0
  1  5  1  0     0  0
  1 27  1  0     0  0
  4 28  2  0     0  0
  5  9  1  0     0  0
  6 10  1  0     0  0
  6 28  1  0     0  0
  7 11  1  0     0  0
  7 29  1  0     0  0
  8 30  1  0     0  0
  8 31  1  0     0  0
  8 32  1  0     0  0
  9 15  2  0     0  0
  9 16  1  0     0  0
 10 12  2  0     0  0
 10 17  1  0     0  0
 11 18  1  0     0  0
 11 19  2  0     0  0
 12 15  1  0     0  0
 12 33  1  0     0  0
 13 20  2  0     0  0
 13 21  1  0     0  0
 13 29  1  0     0  0
 14 22  1  0     0  0
 14 23  2  0     0  0
 14 30  1  0     0  0
 16 17  2  0     0  0
 18 22  2  0     0  0
 19 23  1  0     0  0
 20 24  1  0     0  0
 21 25  2  0     0  0
 24 26  2  0     0  0
 25 26  1  0     0  0
 27 37  1  0     0  0
 28 33  1  0     0  0
 29 33  2  0     0  0
 31 34  1  0     0  0
 32 35  1  0     0  0
 34 36  1  0     0  0
 35 36  1  0     0  0
M  END
> <standard_type>
pIC50

> <# Confs.>
25

> <canonical_smiles>
O=C1NC2=C(C=C(NS(=O)(CC)=O)C=C2)/C1=C(C3=CC=CC=C3)/NC(C=C4)=CC=C4CN5CCCCC5

> <standard_relation>
=

> <Publication_ID>
nan

> <predicted_activity_value>
6.522878745280337

> <actual_activity_value>
6.6020599913279625

> <Compound>
14

> <standard_units>
nM

> hash
13289132667909043912

$$$$
14_
XXILIB    08252103493D 0   0.00000     0.00000

 37 41  0     1  0            999 V2000
   -7.2559   -0.0780    0.2134 S   0  0  1  0  0  6           0  0  0
   -8.0149    0.2265    1.4114 O   0  0  0  0  0  2           0  0  0
   -7.7902    0.2240   -1.1014 O   0  0  0  0  0  2           0  0  0
    0.7550   -0.4472   -2.8892 O   0  0  0  0  0  2           0  0  0
   -5.6819    0.5833    0.3686 N   0  0  0  0  0  3           0  0  0
   -1.5426   -0.2637   -3.2550 N   0  0  0  0  0  3           0  0  0
    1.3753    0.0000   -0.0000 N   0  0  0  0  0  3           0  0  0
    6.6194   -2.1518    3.2460 N   0  0  1  0  0  3           0  0  0
   -4.6711    0.2940   -0.6126 C   0  0  0  0  0  4           0  0  0
   -2.6742   -0.0870   -2.4646 C   0  0  0  0  0  4           0  0  0
    2.2955   -0.5267    0.9123 C   0  0  0  0  0  4           0  0  0
   -2.3263    0.0539   -1.1190 C   0  0  0  0  0  4           0  0  0
   -0.5424   -0.0000    1.3613 C   0  0  0  0  0  4           0  0  0
    4.2238   -1.5242    2.7348 C   0  0  0  0  0  4           0  0  0
   -3.3303    0.2732   -0.1875 C   0  0  0  0  0  4           0  0  0
   -4.9864    0.1630   -1.9787 C   0  0  0  0  0  4           0  0  0
   -3.9788   -0.0385   -2.9208 C   0  0  0  0  0  4           0  0  0
    2.0296   -1.6591    1.6965 C   0  0  0  0  0  4           0  0  0
    3.5434    0.0984    1.0614 C   0  0  0  0  0  4           0  0  0
   -0.2428    1.0473    2.2430 C   0  0  0  0  0  4           0  0  0
   -1.3618   -1.0508    1.7962 C   0  0  0  0  0  4           0  0  0
    2.9800   -2.1500    2.5984 C   0  0  0  0  0  4           0  0  0
    4.4949   -0.3908    1.9614 C   0  0  0  0  0  4           0  0  0
   -0.7622    1.0458    3.5388 C   0  0  0  0  0  4           0  0  0
   -1.8800   -1.0480    3.0924 C   0  0  0  0  0  4           0  0  0
   -1.5813    0.0000    3.9620 C   0  0  0  0  0  4           0  0  0
   -6.8581   -1.8143    0.2486 C   0  0  0  0  0  4           0  0  0
   -0.3798   -0.2616   -2.4893 C   0  0  0  0  0  4           0  0  0
    0.0000    0.0000   -0.0000 C   0  0  0  0  0  4           0  0  0
    5.2361   -2.0388    3.7202 C   0  0  0  0  0  4           0  0  0
    7.4789   -2.6672    4.3248 C   0  0  0  0  0  4           0  0  0
    6.7155   -3.0116    2.0532 C   0  0  0  0  0  4           0  0  0
   -0.8472   -0.0364   -1.0574 C   0  0  0  0  0  4           0  0  0
    8.9430   -2.7363    3.8895 C   0  0  0  0  0  4           0  0  0
    8.1547   -3.0948    1.5399 C   0  0  0  0  0  4           0  0  0
    9.1098   -3.5725    2.6271 C   0  0  0  0  0  4           0  0  0
   -8.1067   -2.6736    0.2818 C   0  0  0  0  0  4           0  0  0
  1  2  2  0     0  0
  1  3  2  0     0  0
  1  5  1  0     0  0
  1 27  1  0     0  0
  4 28  2  0     0  0
  5  9  1  0     0  0
  6 10  1  0     0  0
  6 28  1  0     0  0
  7 11  1  0     0  0
  7 29  1  0     0  0
  8 30  1  0     0  0
  8 31  1  0     0  0
  8 32  1  0     0  0
  9 15  2  0     0  0
  9 16  1  0     0  0
 10 12  2  0     0  0
 10 17  1  0     0  0
 11 18  1  0     0  0
 11 19  2  0     0  0
 12 15  1  0     0  0
 12 33  1  0     0  0
 13 20  2  0     0  0
 13 21  1  0     0  0
 13 29  1  0     0  0
 14 22  1  0     0  0
 14 23  2  0     0  0
 14 30  1  0     0  0
 16 17  2  0     0  0
 18 22  2  0     0  0
 19 23  1  0     0  0
 20 24  1  0     0  0
 21 25  2  0     0  0
 24 26  2  0     0  0
 25 26  1  0     0  0
 27 37  1  0     0  0
 28 33  1  0     0  0
 29 33  2  0     0  0
 31 34  1  0     0  0
 32 35  1  0     0  0
 34 36  1  0     0  0
 35 36  1  0     0  0
M  END
> <standard_type>
pIC50

> <# Confs.>
25

> <canonical_smiles>
O=C1NC2=C(C=C(NS(=O)(CC)=O)C=C2)/C1=C(C3=CC=CC=C3)/NC(C=C4)=CC=C4CN5CCCCC5

> <standard_relation>
=

> <Publication_ID>
nan

> <predicted_activity_value>
6.522878745280337

> <actual_activity_value>
6.6020599913279625

> <Compound>
14

> <standard_units>
nM

> hash
13289132667909043912

$$$$
14_
XXILIB    08252103493D 0   0.00000     0.00000

 37 41  0     1  0            999 V2000
    2.6200    1.6472   -5.7969 S   0  0  1  0  0  6           0  0  0
    3.9571    1.4706   -6.3307 O   0  0  0  0  0  2           0  0  0
    1.6197    2.3981   -6.5322 O   0  0  0  0  0  2           0  0  0
   -3.0490   -0.0322   -0.0846 O   0  0  0  0  0  2           0  0  0
    1.9901    0.1151   -5.3552 N   0  0  0  0  0  3           0  0  0
   -2.7179   -0.0340   -2.3940 N   0  0  0  0  0  3           0  0  0
    1.3753   -0.0000   -0.0000 N   0  0  0  0  0  3           0  0  0
    6.3884    4.0889    0.9045 N   0  0  1  0  0  3           0  0  0
    0.7387    0.0176   -4.6535 C   0  0  0  0  0  4           0  0  0
   -1.6242   -0.0162   -3.2535 C   0  0  0  0  0  4           0  0  0
    2.2955    1.0535    0.0000 C   0  0  0  0  0  4           0  0  0
   -0.4228    0.0042   -2.5379 C   0  0  0  0  0  4           0  0  0
   -0.6211   -0.0000    1.3272 C   0  0  0  0  0  4           0  0  0
    4.2330    3.1225    0.0019 C   0  0  0  0  0  4           0  0  0
    0.7694    0.0378   -3.2460 C   0  0  0  0  0  4           0  0  0
   -0.4893    0.0244   -5.3406 C   0  0  0  0  0  4           0  0  0
   -1.6903   -0.0039   -4.6358 C   0  0  0  0  0  4           0  0  0
    1.9109    2.4025    0.0000 C   0  0  0  0  0  4           0  0  0
    3.6684    0.7608   -0.0031 C   0  0  0  0  0  4           0  0  0
   -0.9213    1.2094    1.9686 C   0  0  0  0  0  4           0  0  0
   -0.9159   -1.2101    1.9702 C   0  0  0  0  0  4           0  0  0
    2.8669    3.4241   -0.0022 C   0  0  0  0  0  4           0  0  0
    4.6254    1.7800   -0.0044 C   0  0  0  0  0  4           0  0  0
   -1.5147    1.2066    3.2323 C   0  0  0  0  0  4           0  0  0
   -1.5103   -1.2085    3.2333 C   0  0  0  0  0  4           0  0  0
   -1.8103   -0.0012    3.8628 C   0  0  0  0  0  4           0  0  0
    2.7722    2.3869   -4.1832 C   0  0  0  0  0  4           0  0  0
   -2.3207   -0.0243   -1.0608 C   0  0  0  0  0  4           0  0  0
    0.0000    0.0000    0.0000 C   0  0  0  0  0  4           0  0  0
    5.2598    4.2205   -0.0231 C   0  0  0  0  0  4           0  0  0
    7.2967    5.2381    0.7554 C   0  0  0  0  0  4           0  0  0
    5.9321    3.9682    2.3003 C   0  0  0  0  0  4           0  0  0
   -0.7935   -0.0035   -1.1009 C   0  0  0  0  0  4           0  0  0
    8.5223    5.1041    1.6597 C   0  0  0  0  0  4           0  0  0
    7.1114    3.7923    3.2596 C   0  0  0  0  0  4           0  0  0
    8.1212    4.9249    3.1184 C   0  0  0  0  0  4           0  0  0
    3.4667    3.7329   -4.2483 C   0  0  0  0  0  4           0  0  0
  1  2  2  0     0  0
  1  3  2  0     0  0
  1  5  1  0     0  0
  1 27  1  0     0  0
  4 28  2  0     0  0
  5  9  1  0     0  0
  6 10  1  0     0  0
  6 28  1  0     0  0
  7 11  1  0     0  0
  7 29  1  0     0  0
  8 30  1  0     0  0
  8 31  1  0     0  0
  8 32  1  0     0  0
  9 15  2  0     0  0
  9 16  1  0     0  0
 10 12  2  0     0  0
 10 17  1  0     0  0
 11 18  1  0     0  0
 11 19  2  0     0  0
 12 15  1  0     0  0
 12 33  1  0     0  0
 13 20  2  0     0  0
 13 21  1  0     0  0
 13 29  1  0     0  0
 14 22  1  0     0  0
 14 23  2  0     0  0
 14 30  1  0     0  0
 16 17  2  0     0  0
 18 22  2  0     0  0
 19 23  1  0     0  0
 20 24  1  0     0  0
 21 25  2  0     0  0
 24 26  2  0     0  0
 25 26  1  0     0  0
 27 37  1  0     0  0
 28 33  1  0     0  0
 29 33  2  0     0  0
 31 34  1  0     0  0
 32 35  1  0     0  0
 34 36  1  0     0  0
 35 36  1  0     0  0
M  END
> <standard_type>
pIC50

> <# Confs.>
25

> <canonical_smiles>
O=C1NC2=C(C=C(NS(=O)(CC)=O)C=C2)/C1=C(C3=CC=CC=C3)/NC(C=C4)=CC=C4CN5CCCCC5

> <standard_relation>
=

> <Publication_ID>
nan

> <predicted_activity_value>
6.522878745280337

> <actual_activity_value>
6.6020599913279625

> <Compound>
14

> <standard_units>
nM

> hash
13289132667909043912

$$$$
14_
XXILIB    08252103493D 0   0.00000     0.00000

 37 41  0     1  0            999 V2000
   -7.2559   -0.0780    0.2134 S   0  0  1  0  0  6           0  0  0
   -8.0149    0.2265    1.4114 O   0  0  0  0  0  2           0  0  0
   -7.7902    0.2240   -1.1014 O   0  0  0  0  0  2           0  0  0
    0.7550   -0.4472   -2.8892 O   0  0  0  0  0  2           0  0  0
   -5.6819    0.5833    0.3686 N   0  0  0  0  0  3           0  0  0
   -1.5426   -0.2637   -3.2550 N   0  0  0  0  0  3           0  0  0
    1.3753    0.0000    0.0000 N   0  0  0  0  0  3           0  0  0
    4.7404   -2.3770    5.0586 N   0  0  1  0  0  3           0  0  0
   -4.6711    0.2940   -0.6126 C   0  0  0  0  0  4           0  0  0
   -2.6742   -0.0870   -2.4646 C   0  0  0  0  0  4           0  0  0
    2.2955   -0.5267    0.9123 C   0  0  0  0  0  4           0  0  0
   -2.3263    0.0539   -1.1190 C   0  0  0  0  0  4           0  0  0
   -0.5424   -0.0000    1.3613 C   0  0  0  0  0  4           0  0  0
    4.2238   -1.5242    2.7348 C   0  0  0  0  0  4           0  0  0
   -3.3303    0.2732   -0.1875 C   0  0  0  0  0  4           0  0  0
   -4.9864    0.1630   -1.9787 C   0  0  0  0  0  4           0  0  0
   -3.9788   -0.0385   -2.9208 C   0  0  0  0  0  4           0  0  0
    2.0296   -1.6591    1.6965 C   0  0  0  0  0  4           0  0  0
    3.5434    0.0984    1.0614 C   0  0  0  0  0  4           0  0  0
   -0.2428    1.0473    2.2430 C   0  0  0  0  0  4           0  0  0
   -1.3618   -1.0508    1.7962 C   0  0  0  0  0  4           0  0  0
    2.9800   -2.1500    2.5984 C   0  0  0  0  0  4           0  0  0
    4.4949   -0.3908    1.9614 C   0  0  0  0  0  4           0  0  0
   -0.7622    1.0458    3.5388 C   0  0  0  0  0  4           0  0  0
   -1.8800   -1.0480    3.0924 C   0  0  0  0  0  4           0  0  0
   -1.5813    0.0000    3.9620 C   0  0  0  0  0  4           0  0  0
   -6.8581   -1.8143    0.2486 C   0  0  0  0  0  4           0  0  0
   -0.3798   -0.2616   -2.4893 C   0  0  0  0  0  4           0  0  0
    0.0000    0.0000   -0.0000 C   0  0  0  0  0  4           0  0  0
    5.2361   -2.0388    3.7202 C   0  0  0  0  0  4           0  0  0
    5.8497   -2.8624    5.8963 C   0  0  0  0  0  4           0  0  0
    4.0750   -1.2278    5.6971 C   0  0  0  0  0  4           0  0  0
   -0.8472   -0.0364   -1.0574 C   0  0  0  0  0  4           0  0  0
    5.3607   -3.2890    7.2808 C   0  0  0  0  0  4           0  0  0
    3.5259   -1.5971    7.0770 C   0  0  0  0  0  4           0  0  0
    4.6163   -2.1592    7.9810 C   0  0  0  0  0  4           0  0  0
   -8.1067   -2.6736    0.2818 C   0  0  0  0  0  4           0  0  0
  1  2  2  0     0  0
  1  3  2  0     0  0
  1  5  1  0     0  0
  1 27  1  0     0  0
  4 28  2  0     0  0
  5  9  1  0     0  0
  6 10  1  0     0  0
  6 28  1  0     0  0
  7 11  1  0     0  0
  7 29  1  0     0  0
  8 30  1  0     0  0
  8 31  1  0     0  0
  8 32  1  0     0  0
  9 15  2  0     0  0
  9 16  1  0     0  0
 10 12  2  0     0  0
 10 17  1  0     0  0
 11 18  1  0     0  0
 11 19  2  0     0  0
 12 15  1  0     0  0
 12 33  1  0     0  0
 13 20  2  0     0  0
 13 21  1  0     0  0
 13 29  1  0     0  0
 14 22  1  0     0  0
 14 23  2  0     0  0
 14 30  1  0     0  0
 16 17  2  0     0  0
 18 22  2  0     0  0
 19 23  1  0     0  0
 20 24  1  0     0  0
 21 25  2  0     0  0
 24 26  2  0     0  0
 25 26  1  0     0  0
 27 37  1  0     0  0
 28 33  1  0     0  0
 29 33  2  0     0  0
 31 34  1  0     0  0
 32 35  1  0     0  0
 34 36  1  0     0  0
 35 36  1  0     0  0
M  END
> <standard_type>
pIC50

> <# Confs.>
25

> <canonical_smiles>
O=C1NC2=C(C=C(NS(=O)(CC)=O)C=C2)/C1=C(C3=CC=CC=C3)/NC(C=C4)=CC=C4CN5CCCCC5

> <standard_relation>
=

> <Publication_ID>
nan

> <predicted_activity_value>
6.522878745280337

> <actual_activity_value>
6.6020599913279625

> <Compound>
14

> <standard_units>
nM

> hash
13289132667909043912

$$$$
14_
XXILIB    08252103493D 0   0.00000     0.00000

 37 41  0     1  0            999 V2000
    2.4338   -1.8377   -5.9219 S   0  0  1  0  0  6           0  0  0
    1.2796   -2.7163   -5.9227 O   0  0  0  0  0  2           0  0  0
    3.2928   -1.7386   -7.0870 O   0  0  0  0  0  2           0  0  0
   -3.0463    0.1214   -0.0891 O   0  0  0  0  0  2           0  0  0
    1.9414   -0.2723   -5.4263 N   0  0  0  0  0  3           0  0  0
   -2.7103    0.1360   -2.3982 N   0  0  0  0  0  3           0  0  0
    1.3753   -0.0000    0.0000 N   0  0  0  0  0  3           0  0  0
    5.0317   -5.3150    0.9724 N   0  0  1  0  0  3           0  0  0
    0.7454   -0.0984   -4.6470 C   0  0  0  0  0  4           0  0  0
   -1.6164    0.0748   -3.2553 C   0  0  0  0  0  4           0  0  0
    2.2955   -1.0535    0.0000 C   0  0  0  0  0  4           0  0  0
   -0.4194   -0.0095   -2.5372 C   0  0  0  0  0  4           0  0  0
   -0.6222    0.0000    1.3267 C   0  0  0  0  0  4           0  0  0
    4.2330   -3.1225   -0.0019 C   0  0  0  0  0  4           0  0  0
    0.7716   -0.1270   -3.2392 C   0  0  0  0  0  4           0  0  0
   -0.4795   -0.0277   -5.3359 C   0  0  0  0  0  4           0  0  0
   -1.6796    0.0687   -4.6371 C   0  0  0  0  0  4           0  0  0
    1.9109   -2.4025    0.0000 C   0  0  0  0  0  4           0  0  0
    3.6684   -0.7608    0.0031 C   0  0  0  0  0  4           0  0  0
   -0.9229    1.2094    1.9678 C   0  0  0  0  0  4           0  0  0
   -0.9175   -1.2101    1.9695 C   0  0  0  0  0  4           0  0  0
    2.8669   -3.4241    0.0022 C   0  0  0  0  0  4           0  0  0
    4.6254   -1.7800    0.0044 C   0  0  0  0  0  4           0  0  0
   -1.5173    1.2066    3.2311 C   0  0  0  0  0  4           0  0  0
   -1.5128   -1.2085    3.2321 C   0  0  0  0  0  4           0  0  0
   -1.8134   -0.0012    3.8613 C   0  0  0  0  0  4           0  0  0
    3.4567   -2.2854   -4.5336 C   0  0  0  0  0  4           0  0  0
   -2.3174    0.0934   -1.0641 C   0  0  0  0  0  4           0  0  0
    0.0000   -0.0000    0.0000 C   0  0  0  0  0  4           0  0  0
    5.2598   -4.2205    0.0231 C   0  0  0  0  0  4           0  0  0
    6.1203   -6.3012    0.8719 C   0  0  0  0  0  4           0  0  0
    4.9104   -4.8181    2.3543 C   0  0  0  0  0  4           0  0  0
   -0.7924    0.0151   -1.1011 C   0  0  0  0  0  4           0  0  0
    5.8838   -7.4929    1.8002 C   0  0  0  0  0  4           0  0  0
    4.6339   -5.9595    3.3354 C   0  0  0  0  0  4           0  0  0
    5.6990   -7.0456    3.2446 C   0  0  0  0  0  4           0  0  0
    3.9238   -3.7249   -4.6241 C   0  0  0  0  0  4           0  0  0
  1  2  2  0     0  0
  1  3  2  0     0  0
  1  5  1  0     0  0
  1 27  1  0     0  0
  4 28  2  0     0  0
  5  9  1  0     0  0
  6 10  1  0     0  0
  6 28  1  0     0  0
  7 11  1  0     0  0
  7 29  1  0     0  0
  8 30  1  0     0  0
  8 31  1  0     0  0
  8 32  1  0     0  0
  9 15  2  0     0  0
  9 16  1  0     0  0
 10 12  2  0     0  0
 10 17  1  0     0  0
 11 18  1  0     0  0
 11 19  2  0     0  0
 12 15  1  0     0  0
 12 33  1  0     0  0
 13 20  2  0     0  0
 13 21  1  0     0  0
 13 29  1  0     0  0
 14 22  1  0     0  0
 14 23  2  0     0  0
 14 30  1  0     0  0
 16 17  2  0     0  0
 18 22  2  0     0  0
 19 23  1  0     0  0
 20 24  1  0     0  0
 21 25  2  0     0  0
 24 26  2  0     0  0
 25 26  1  0     0  0
 27 37  1  0     0  0
 28 33  1  0     0  0
 29 33  2  0     0  0
 31 34  1  0     0  0
 32 35  1  0     0  0
 34 36  1  0     0  0
 35 36  1  0     0  0
M  END
> <standard_type>
pIC50

> <# Confs.>
25

> <canonical_smiles>
O=C1NC2=C(C=C(NS(=O)(CC)=O)C=C2)/C1=C(C3=CC=CC=C3)/NC(C=C4)=CC=C4CN5CCCCC5

> <standard_relation>
=

> <Publication_ID>
nan

> <predicted_activity_value>
6.522878745280337

> <actual_activity_value>
6.6020599913279625

> <Compound>
14

> <standard_units>
nM

> hash
13289132667909043912

$$$$
14_
XXILIB    08252103493D 0   0.00000     0.00000

 37 41  0     1  0            999 V2000
   -7.2559   -0.0780    0.2134 S   0  0  1  0  0  6           0  0  0
   -8.0149    0.2265    1.4114 O   0  0  0  0  0  2           0  0  0
   -7.7902    0.2240   -1.1014 O   0  0  0  0  0  2           0  0  0
    0.7550   -0.4472   -2.8892 O   0  0  0  0  0  2           0  0  0
   -5.6819    0.5833    0.3686 N   0  0  0  0  0  3           0  0  0
   -1.5426   -0.2637   -3.2550 N   0  0  0  0  0  3           0  0  0
    1.3753    0.0000   -0.0000 N   0  0  0  0  0  3           0  0  0
    5.4436   -3.4903    3.7549 N   0  0  1  0  0  3           0  0  0
   -4.6711    0.2940   -0.6126 C   0  0  0  0  0  4           0  0  0
   -2.6742   -0.0870   -2.4646 C   0  0  0  0  0  4           0  0  0
    2.2955   -0.5267    0.9123 C   0  0  0  0  0  4           0  0  0
   -2.3263    0.0539   -1.1190 C   0  0  0  0  0  4           0  0  0
   -0.5424   -0.0000    1.3613 C   0  0  0  0  0  4           0  0  0
    4.2238   -1.5242    2.7348 C   0  0  0  0  0  4           0  0  0
   -3.3303    0.2732   -0.1875 C   0  0  0  0  0  4           0  0  0
   -4.9864    0.1630   -1.9787 C   0  0  0  0  0  4           0  0  0
   -3.9788   -0.0385   -2.9208 C   0  0  0  0  0  4           0  0  0
    2.0296   -1.6591    1.6965 C   0  0  0  0  0  4           0  0  0
    3.5434    0.0984    1.0614 C   0  0  0  0  0  4           0  0  0
   -0.2428    1.0473    2.2430 C   0  0  0  0  0  4           0  0  0
   -1.3618   -1.0508    1.7962 C   0  0  0  0  0  4           0  0  0
    2.9800   -2.1500    2.5984 C   0  0  0  0  0  4           0  0  0
    4.4949   -0.3908    1.9614 C   0  0  0  0  0  4           0  0  0
   -0.7622    1.0458    3.5388 C   0  0  0  0  0  4           0  0  0
   -1.8800   -1.0480    3.0924 C   0  0  0  0  0  4           0  0  0
   -1.5813    0.0000    3.9620 C   0  0  0  0  0  4           0  0  0
   -6.8581   -1.8143    0.2486 C   0  0  0  0  0  4           0  0  0
   -0.3798   -0.2616   -2.4893 C   0  0  0  0  0  4           0  0  0
    0.0000    0.0000   -0.0000 C   0  0  0  0  0  4           0  0  0
    5.2361   -2.0388    3.7202 C   0  0  0  0  0  4           0  0  0
    5.9017   -3.9631    2.4380 C   0  0  0  0  0  4           0  0  0
    6.4025   -3.8763    4.8050 C   0  0  0  0  0  4           0  0  0
   -0.8472   -0.0364   -1.0574 C   0  0  0  0  0  4           0  0  0
    6.0656   -5.4831    2.4146 C   0  0  0  0  0  4           0  0  0
    6.5859   -5.3945    4.8625 C   0  0  0  0  0  4           0  0  0
    7.0096   -5.9584    3.5116 C   0  0  0  0  0  4           0  0  0
   -8.1067   -2.6736    0.2818 C   0  0  0  0  0  4           0  0  0
  1  2  2  0     0  0
  1  3  2  0     0  0
  1  5  1  0     0  0
  1 27  1  0     0  0
  4 28  2  0     0  0
  5  9  1  0     0  0
  6 10  1  0     0  0
  6 28  1  0     0  0
  7 11  1  0     0  0
  7 29  1  0     0  0
  8 30  1  0     0  0
  8 31  1  0     0  0
  8 32  1  0     0  0
  9 15  2  0     0  0
  9 16  1  0     0  0
 10 12  2  0     0  0
 10 17  1  0     0  0
 11 18  1  0     0  0
 11 19  2  0     0  0
 12 15  1  0     0  0
 12 33  1  0     0  0
 13 20  2  0     0  0
 13 21  1  0     0  0
 13 29  1  0     0  0
 14 22  1  0     0  0
 14 23  2  0     0  0
 14 30  1  0     0  0
 16 17  2  0     0  0
 18 22  2  0     0  0
 19 23  1  0     0  0
 20 24  1  0     0  0
 21 25  2  0     0  0
 24 26  2  0     0  0
 25 26  1  0     0  0
 27 37  1  0     0  0
 28 33  1  0     0  0
 29 33  2  0     0  0
 31 34  1  0     0  0
 32 35  1  0     0  0
 34 36  1  0     0  0
 35 36  1  0     0  0
M  END
> <standard_type>
pIC50

> <# Confs.>
25

> <canonical_smiles>
O=C1NC2=C(C=C(NS(=O)(CC)=O)C=C2)/C1=C(C3=CC=CC=C3)/NC(C=C4)=CC=C4CN5CCCCC5

> <standard_relation>
=

> <Publication_ID>
nan

> <predicted_activity_value>
6.522878745280337

> <actual_activity_value>
6.6020599913279625

> <Compound>
14

> <standard_units>
nM

> hash
13289132667909043912

$$$$
14_
XXILIB    08252103493D 0   0.00000     0.00000

 37 41  0     1  0            999 V2000
   -7.2559   -0.0780    0.2134 S   0  0  1  0  0  6           0  0  0
   -8.0149    0.2265    1.4114 O   0  0  0  0  0  2           0  0  0
   -7.7902    0.2240   -1.1014 O   0  0  0  0  0  2           0  0  0
    0.7550   -0.4472   -2.8892 O   0  0  0  0  0  2           0  0  0
   -5.6819    0.5833    0.3686 N   0  0  0  0  0  3           0  0  0
   -1.5426   -0.2637   -3.2550 N   0  0  0  0  0  3           0  0  0
    1.3753    0.0000    0.0000 N   0  0  0  0  0  3           0  0  0
    5.9163   -1.0385    4.5497 N   0  0  1  0  0  3           0  0  0
   -4.6711    0.2940   -0.6126 C   0  0  0  0  0  4           0  0  0
   -2.6742   -0.0870   -2.4646 C   0  0  0  0  0  4           0  0  0
    2.2955   -0.5267    0.9123 C   0  0  0  0  0  4           0  0  0
   -2.3263    0.0539   -1.1190 C   0  0  0  0  0  4           0  0  0
   -0.5424   -0.0000    1.3613 C   0  0  0  0  0  4           0  0  0
    4.2238   -1.5242    2.7348 C   0  0  0  0  0  4           0  0  0
   -3.3303    0.2732   -0.1875 C   0  0  0  0  0  4           0  0  0
   -4.9864    0.1630   -1.9787 C   0  0  0  0  0  4           0  0  0
   -3.9788   -0.0385   -2.9208 C   0  0  0  0  0  4           0  0  0
    2.0296   -1.6591    1.6965 C   0  0  0  0  0  4           0  0  0
    3.5434    0.0984    1.0614 C   0  0  0  0  0  4           0  0  0
   -0.2428    1.0473    2.2430 C   0  0  0  0  0  4           0  0  0
   -1.3618   -1.0508    1.7962 C   0  0  0  0  0  4           0  0  0
    2.9800   -2.1500    2.5984 C   0  0  0  0  0  4           0  0  0
    4.4949   -0.3908    1.9614 C   0  0  0  0  0  4           0  0  0
   -0.7622    1.0458    3.5388 C   0  0  0  0  0  4           0  0  0
   -1.8800   -1.0480    3.0924 C   0  0  0  0  0  4           0  0  0
   -1.5813    0.0000    3.9620 C   0  0  0  0  0  4           0  0  0
   -6.8581   -1.8143    0.2486 C   0  0  0  0  0  4           0  0  0
   -0.3798   -0.2616   -2.4893 C   0  0  0  0  0  4           0  0  0
    0.0000    0.0000   -0.0000 C   0  0  0  0  0  4           0  0  0
    5.2361   -2.0388    3.7202 C   0  0  0  0  0  4           0  0  0
    4.9291   -0.2968    5.3516 C   0  0  0  0  0  4           0  0  0
    6.9313   -1.6560    5.4213 C   0  0  0  0  0  4           0  0  0
   -0.8472   -0.0364   -1.0574 C   0  0  0  0  0  4           0  0  0
    5.5936    0.8021    6.1815 C   0  0  0  0  0  4           0  0  0
    7.6646   -0.6037    6.2561 C   0  0  0  0  0  4           0  0  0
    6.6927    0.2388    7.0733 C   0  0  0  0  0  4           0  0  0
   -8.1067   -2.6736    0.2818 C   0  0  0  0  0  4           0  0  0
  1  2  2  0     0  0
  1  3  2  0     0  0
  1  5  1  0     0  0
  1 27  1  0     0  0
  4 28  2  0     0  0
  5  9  1  0     0  0
  6 10  1  0     0  0
  6 28  1  0     0  0
  7 11  1  0     0  0
  7 29  1  0     0  0
  8 30  1  0     0  0
  8 31  1  0     0  0
  8 32  1  0     0  0
  9 15  2  0     0  0
  9 16  1  0     0  0
 10 12  2  0     0  0
 10 17  1  0     0  0
 11 18  1  0     0  0
 11 19  2  0     0  0
 12 15  1  0     0  0
 12 33  1  0     0  0
 13 20  2  0     0  0
 13 21  1  0     0  0
 13 29  1  0     0  0
 14 22  1  0     0  0
 14 23  2  0     0  0
 14 30  1  0     0  0
 16 17  2  0     0  0
 18 22  2  0     0  0
 19 23  1  0     0  0
 20 24  1  0     0  0
 21 25  2  0     0  0
 24 26  2  0     0  0
 25 26  1  0     0  0
 27 37  1  0     0  0
 28 33  1  0     0  0
 29 33  2  0     0  0
 31 34  1  0     0  0
 32 35  1  0     0  0
 34 36  1  0     0  0
 35 36  1  0     0  0
M  END
> <standard_type>
pIC50

> <# Confs.>
25

> <canonical_smiles>
O=C1NC2=C(C=C(NS(=O)(CC)=O)C=C2)/C1=C(C3=CC=CC=C3)/NC(C=C4)=CC=C4CN5CCCCC5

> <standard_relation>
=

> <Publication_ID>
nan

> <predicted_activity_value>
6.522878745280337

> <actual_activity_value>
6.6020599913279625

> <Compound>
14

> <standard_units>
nM

> hash
13289132667909043912

$$$$
14_
XXILIB    08252103493D 0   0.00000     0.00000

 37 41  0     1  0            999 V2000
    2.6200    1.6472   -5.7969 S   0  0  1  0  0  6           0  0  0
    3.9571    1.4706   -6.3307 O   0  0  0  0  0  2           0  0  0
    1.6197    2.3981   -6.5322 O   0  0  0  0  0  2           0  0  0
   -3.0490   -0.0322   -0.0846 O   0  0  0  0  0  2           0  0  0
    1.9901    0.1151   -5.3552 N   0  0  0  0  0  3           0  0  0
   -2.7179   -0.0340   -2.3940 N   0  0  0  0  0  3           0  0  0
    1.3753   -0.0000   -0.0000 N   0  0  0  0  0  3           0  0  0
    5.0349    5.3541    0.8801 N   0  0  1  0  0  3           0  0  0
    0.7387    0.0176   -4.6535 C   0  0  0  0  0  4           0  0  0
   -1.6242   -0.0162   -3.2535 C   0  0  0  0  0  4           0  0  0
    2.2955    1.0535    0.0000 C   0  0  0  0  0  4           0  0  0
   -0.4228    0.0042   -2.5379 C   0  0  0  0  0  4           0  0  0
   -0.6211   -0.0000    1.3272 C   0  0  0  0  0  4           0  0  0
    4.2330    3.1225    0.0019 C   0  0  0  0  0  4           0  0  0
    0.7694    0.0378   -3.2460 C   0  0  0  0  0  4           0  0  0
   -0.4893    0.0244   -5.3406 C   0  0  0  0  0  4           0  0  0
   -1.6903   -0.0039   -4.6358 C   0  0  0  0  0  4           0  0  0
    1.9109    2.4025    0.0000 C   0  0  0  0  0  4           0  0  0
    3.6684    0.7608   -0.0031 C   0  0  0  0  0  4           0  0  0
   -0.9213    1.2094    1.9686 C   0  0  0  0  0  4           0  0  0
   -0.9159   -1.2101    1.9702 C   0  0  0  0  0  4           0  0  0
    2.8669    3.4241   -0.0022 C   0  0  0  0  0  4           0  0  0
    4.6254    1.7800   -0.0044 C   0  0  0  0  0  4           0  0  0
   -1.5147    1.2066    3.2323 C   0  0  0  0  0  4           0  0  0
   -1.5103   -1.2085    3.2333 C   0  0  0  0  0  4           0  0  0
   -1.8103   -0.0012    3.8628 C   0  0  0  0  0  4           0  0  0
    2.7722    2.3869   -4.1832 C   0  0  0  0  0  4           0  0  0
   -2.3207   -0.0243   -1.0608 C   0  0  0  0  0  4           0  0  0
    0.0000    0.0000    0.0000 C   0  0  0  0  0  4           0  0  0
    5.2598    4.2205   -0.0231 C   0  0  0  0  0  4           0  0  0
    4.9960    4.8840    2.2749 C   0  0  0  0  0  4           0  0  0
    6.0659    6.3934    0.7134 C   0  0  0  0  0  4           0  0  0
   -0.7935   -0.0035   -1.1009 C   0  0  0  0  0  4           0  0  0
    4.6964    6.0286    3.2434 C   0  0  0  0  0  4           0  0  0
    5.8047    7.5906    1.6301 C   0  0  0  0  0  4           0  0  0
    5.6992    7.1651    3.0896 C   0  0  0  0  0  4           0  0  0
    3.4667    3.7329   -4.2483 C   0  0  0  0  0  4           0  0  0
  1  2  2  0     0  0
  1  3  2  0     0  0
  1  5  1  0     0  0
  1 27  1  0     0  0
  4 28  2  0     0  0
  5  9  1  0     0  0
  6 10  1  0     0  0
  6 28  1  0     0  0
  7 11  1  0     0  0
  7 29  1  0     0  0
  8 30  1  0     0  0
  8 31  1  0     0  0
  8 32  1  0     0  0
  9 15  2  0     0  0
  9 16  1  0     0  0
 10 12  2  0     0  0
 10 17  1  0     0  0
 11 18  1  0     0  0
 11 19  2  0     0  0
 12 15  1  0     0  0
 12 33  1  0     0  0
 13 20  2  0     0  0
 13 21  1  0     0  0
 13 29  1  0     0  0
 14 22  1  0     0  0
 14 23  2  0     0  0
 14 30  1  0     0  0
 16 17  2  0     0  0
 18 22  2  0     0  0
 19 23  1  0     0  0
 20 24  1  0     0  0
 21 25  2  0     0  0
 24 26  2  0     0  0
 25 26  1  0     0  0
 27 37  1  0     0  0
 28 33  1  0     0  0
 29 33  2  0     0  0
 31 34  1  0     0  0
 32 35  1  0     0  0
 34 36  1  0     0  0
 35 36  1  0     0  0
M  END
> <standard_type>
pIC50

> <# Confs.>
25

> <canonical_smiles>
O=C1NC2=C(C=C(NS(=O)(CC)=O)C=C2)/C1=C(C3=CC=CC=C3)/NC(C=C4)=CC=C4CN5CCCCC5

> <standard_relation>
=

> <Publication_ID>
nan

> <predicted_activity_value>
6.522878745280337

> <actual_activity_value>
6.6020599913279625

> <Compound>
14

> <standard_units>
nM

> hash
13289132667909043912

$$$$
14_
XXILIB    08252103493D 0   0.00000     0.00000

 37 41  0     1  0            999 V2000
    2.8587   -1.7147   -5.2973 S   0  0  1  0  0  6           0  0  0
    3.9020   -1.7011   -6.3050 O   0  0  0  0  0  2           0  0  0
    3.1739   -1.9757   -3.9052 O   0  0  0  0  0  2           0  0  0
   -3.0463    0.1214   -0.0891 O   0  0  0  0  0  2           0  0  0
    1.9414   -0.2723   -5.4263 N   0  0  0  0  0  3           0  0  0
   -2.7103    0.1360   -2.3982 N   0  0  0  0  0  3           0  0  0
    1.3753   -0.0000   -0.0000 N   0  0  0  0  0  3           0  0  0
    5.0349    5.3541    0.8801 N   0  0  1  0  0  3           0  0  0
    0.7454   -0.0984   -4.6470 C   0  0  0  0  0  4           0  0  0
   -1.6164    0.0748   -3.2553 C   0  0  0  0  0  4           0  0  0
    2.2955    1.0535    0.0000 C   0  0  0  0  0  4           0  0  0
   -0.4194   -0.0095   -2.5372 C   0  0  0  0  0  4           0  0  0
   -0.6222    0.0000    1.3267 C   0  0  0  0  0  4           0  0  0
    4.2330    3.1225    0.0019 C   0  0  0  0  0  4           0  0  0
    0.7716   -0.1270   -3.2392 C   0  0  0  0  0  4           0  0  0
   -0.4795   -0.0277   -5.3359 C   0  0  0  0  0  4           0  0  0
   -1.6796    0.0687   -4.6371 C   0  0  0  0  0  4           0  0  0
    1.9109    2.4025    0.0000 C   0  0  0  0  0  4           0  0  0
    3.6684    0.7608   -0.0031 C   0  0  0  0  0  4           0  0  0
   -0.9229    1.2094    1.9678 C   0  0  0  0  0  4           0  0  0
   -0.9175   -1.2101    1.9695 C   0  0  0  0  0  4           0  0  0
    2.8669    3.4241   -0.0022 C   0  0  0  0  0  4           0  0  0
    4.6254    1.7800   -0.0044 C   0  0  0  0  0  4           0  0  0
   -1.5173    1.2066    3.2311 C   0  0  0  0  0  4           0  0  0
   -1.5128   -1.2085    3.2321 C   0  0  0  0  0  4           0  0  0
   -1.8134   -0.0012    3.8613 C   0  0  0  0  0  4           0  0  0
    1.6290   -2.9002   -5.8038 C   0  0  0  0  0  4           0  0  0
   -2.3174    0.0934   -1.0641 C   0  0  0  0  0  4           0  0  0
    0.0000    0.0000    0.0000 C   0  0  0  0  0  4           0  0  0
    5.2598    4.2205   -0.0231 C   0  0  0  0  0  4           0  0  0
    4.9960    4.8840    2.2749 C   0  0  0  0  0  4           0  0  0
    6.0659    6.3934    0.7134 C   0  0  0  0  0  4           0  0  0
   -0.7924    0.0151   -1.1011 C   0  0  0  0  0  4           0  0  0
    4.6964    6.0286    3.2434 C   0  0  0  0  0  4           0  0  0
    5.8047    7.5906    1.6301 C   0  0  0  0  0  4           0  0  0
    5.6992    7.1651    3.0896 C   0  0  0  0  0  4           0  0  0
    2.2150   -4.2921   -5.9360 C   0  0  0  0  0  4           0  0  0
  1  2  2  0     0  0
  1  3  2  0     0  0
  1  5  1  0     0  0
  1 27  1  0     0  0
  4 28  2  0     0  0
  5  9  1  0     0  0
  6 10  1  0     0  0
  6 28  1  0     0  0
  7 11  1  0     0  0
  7 29  1  0     0  0
  8 30  1  0     0  0
  8 31  1  0     0  0
  8 32  1  0     0  0
  9 15  2  0     0  0
  9 16  1  0     0  0
 10 12  2  0     0  0
 10 17  1  0     0  0
 11 18  1  0     0  0
 11 19  2  0     0  0
 12 15  1  0     0  0
 12 33  1  0     0  0
 13 20  2  0     0  0
 13 21  1  0     0  0
 13 29  1  0     0  0
 14 22  1  0     0  0
 14 23  2  0     0  0
 14 30  1  0     0  0
 16 17  2  0     0  0
 18 22  2  0     0  0
 19 23  1  0     0  0
 20 24  1  0     0  0
 21 25  2  0     0  0
 24 26  2  0     0  0
 25 26  1  0     0  0
 27 37  1  0     0  0
 28 33  1  0     0  0
 29 33  2  0     0  0
 31 34  1  0     0  0
 32 35  1  0     0  0
 34 36  1  0     0  0
 35 36  1  0     0  0
M  END
> <standard_type>
pIC50

> <# Confs.>
25

> <canonical_smiles>
O=C1NC2=C(C=C(NS(=O)(CC)=O)C=C2)/C1=C(C3=CC=CC=C3)/NC(C=C4)=CC=C4CN5CCCCC5

> <standard_relation>
=

> <Publication_ID>
nan

> <predicted_activity_value>
6.522878745280337

> <actual_activity_value>
6.6020599913279625

> <Compound>
14

> <standard_units>
nM

> hash
13289132667909043912

$$$$
14_
XXILIB    08252103493D 0   0.00000     0.00000

 37 41  0     1  0            999 V2000
    2.8587   -1.7147   -5.2973 S   0  0  1  0  0  6           0  0  0
    3.9020   -1.7011   -6.3050 O   0  0  0  0  0  2           0  0  0
    3.1739   -1.9757   -3.9052 O   0  0  0  0  0  2           0  0  0
   -3.0463    0.1214   -0.0891 O   0  0  0  0  0  2           0  0  0
    1.9414   -0.2723   -5.4263 N   0  0  0  0  0  3           0  0  0
   -2.7103    0.1360   -2.3982 N   0  0  0  0  0  3           0  0  0
    1.3753    0.0000   -0.0000 N   0  0  0  0  0  3           0  0  0
    5.0317    5.3150   -0.9724 N   0  0  1  0  0  3           0  0  0
    0.7454   -0.0984   -4.6470 C   0  0  0  0  0  4           0  0  0
   -1.6164    0.0748   -3.2553 C   0  0  0  0  0  4           0  0  0
    2.2955    1.0535   -0.0000 C   0  0  0  0  0  4           0  0  0
   -0.4194   -0.0095   -2.5372 C   0  0  0  0  0  4           0  0  0
   -0.6222    0.0000    1.3267 C   0  0  0  0  0  4           0  0  0
    4.2330    3.1225    0.0019 C   0  0  0  0  0  4           0  0  0
    0.7716   -0.1270   -3.2392 C   0  0  0  0  0  4           0  0  0
   -0.4795   -0.0277   -5.3359 C   0  0  0  0  0  4           0  0  0
   -1.6796    0.0687   -4.6371 C   0  0  0  0  0  4           0  0  0
    1.9109    2.4025    0.0000 C   0  0  0  0  0  4           0  0  0
    3.6684    0.7608   -0.0031 C   0  0  0  0  0  4           0  0  0
   -0.9229    1.2094    1.9678 C   0  0  0  0  0  4           0  0  0
   -0.9175   -1.2101    1.9695 C   0  0  0  0  0  4           0  0  0
    2.8669    3.4241   -0.0022 C   0  0  0  0  0  4           0  0  0
    4.6254    1.7800   -0.0044 C   0  0  0  0  0  4           0  0  0
   -1.5173    1.2066    3.2311 C   0  0  0  0  0  4           0  0  0
   -1.5128   -1.2085    3.2321 C   0  0  0  0  0  4           0  0  0
   -1.8134   -0.0012    3.8613 C   0  0  0  0  0  4           0  0  0
    1.6290   -2.9002   -5.8038 C   0  0  0  0  0  4           0  0  0
   -2.3174    0.0934   -1.0641 C   0  0  0  0  0  4           0  0  0
    0.0000    0.0000    0.0000 C   0  0  0  0  0  4           0  0  0
    5.2598    4.2205   -0.0231 C   0  0  0  0  0  4           0  0  0
    6.1203    6.3012   -0.8719 C   0  0  0  0  0  4           0  0  0
    4.9104    4.8181   -2.3543 C   0  0  0  0  0  4           0  0  0
   -0.7924    0.0151   -1.1011 C   0  0  0  0  0  4           0  0  0
    5.8838    7.4929   -1.8002 C   0  0  0  0  0  4           0  0  0
    4.6339    5.9595   -3.3354 C   0  0  0  0  0  4           0  0  0
    5.6990    7.0456   -3.2446 C   0  0  0  0  0  4           0  0  0
    2.2150   -4.2921   -5.9360 C   0  0  0  0  0  4           0  0  0
  1  2  2  0     0  0
  1  3  2  0     0  0
  1  5  1  0     0  0
  1 27  1  0     0  0
  4 28  2  0     0  0
  5  9  1  0     0  0
  6 10  1  0     0  0
  6 28  1  0     0  0
  7 11  1  0     0  0
  7 29  1  0     0  0
  8 30  1  0     0  0
  8 31  1  0     0  0
  8 32  1  0     0  0
  9 15  2  0     0  0
  9 16  1  0     0  0
 10 12  2  0     0  0
 10 17  1  0     0  0
 11 18  1  0     0  0
 11 19  2  0     0  0
 12 15  1  0     0  0
 12 33  1  0     0  0
 13 20  2  0     0  0
 13 21  1  0     0  0
 13 29  1  0     0  0
 14 22  1  0     0  0
 14 23  2  0     0  0
 14 30  1  0     0  0
 16 17  2  0     0  0
 18 22  2  0     0  0
 19 23  1  0     0  0
 20 24  1  0     0  0
 21 25  2  0     0  0
 24 26  2  0     0  0
 25 26  1  0     0  0
 27 37  1  0     0  0
 28 33  1  0     0  0
 29 33  2  0     0  0
 31 34  1  0     0  0
 32 35  1  0     0  0
 34 36  1  0     0  0
 35 36  1  0     0  0
M  END
> <standard_type>
pIC50

> <# Confs.>
25

> <canonical_smiles>
O=C1NC2=C(C=C(NS(=O)(CC)=O)C=C2)/C1=C(C3=CC=CC=C3)/NC(C=C4)=CC=C4CN5CCCCC5

> <standard_relation>
=

> <Publication_ID>
nan

> <predicted_activity_value>
6.522878745280337

> <actual_activity_value>
6.6020599913279625

> <Compound>
14

> <standard_units>
nM

> hash
13289132667909043912

$$$$
14_
XXILIB    08252103493D 0   0.00000     0.00000

 37 41  0     1  0            999 V2000
    3.2553    0.8151   -5.2531 S   0  0  1  0  0  6           0  0  0
    3.1688    1.4554   -3.9544 O   0  0  0  0  0  2           0  0  0
    4.4841    0.1766   -5.6862 O   0  0  0  0  0  2           0  0  0
   -3.0463    0.1214   -0.0891 O   0  0  0  0  0  2           0  0  0
    1.9414   -0.2723   -5.4263 N   0  0  0  0  0  3           0  0  0
   -2.7103    0.1360   -2.3982 N   0  0  0  0  0  3           0  0  0
    1.3753    0.0000    0.0000 N   0  0  0  0  0  3           0  0  0
    5.0349   -5.3541   -0.8801 N   0  0  1  0  0  3           0  0  0
    0.7454   -0.0984   -4.6470 C   0  0  0  0  0  4           0  0  0
   -1.6164    0.0748   -3.2553 C   0  0  0  0  0  4           0  0  0
    2.2955   -1.0535    0.0000 C   0  0  0  0  0  4           0  0  0
   -0.4194   -0.0095   -2.5372 C   0  0  0  0  0  4           0  0  0
   -0.6222    0.0000    1.3267 C   0  0  0  0  0  4           0  0  0
    4.2330   -3.1225   -0.0019 C   0  0  0  0  0  4           0  0  0
    0.7716   -0.1270   -3.2392 C   0  0  0  0  0  4           0  0  0
   -0.4795   -0.0277   -5.3359 C   0  0  0  0  0  4           0  0  0
   -1.6796    0.0687   -4.6371 C   0  0  0  0  0  4           0  0  0
    1.9109   -2.4025    0.0000 C   0  0  0  0  0  4           0  0  0
    3.6684   -0.7608    0.0031 C   0  0  0  0  0  4           0  0  0
   -0.9229    1.2094    1.9678 C   0  0  0  0  0  4           0  0  0
   -0.9175   -1.2101    1.9695 C   0  0  0  0  0  4           0  0  0
    2.8669   -3.4241    0.0022 C   0  0  0  0  0  4           0  0  0
    4.6254   -1.7800    0.0044 C   0  0  0  0  0  4           0  0  0
   -1.5173    1.2066    3.2311 C   0  0  0  0  0  4           0  0  0
   -1.5128   -1.2085    3.2321 C   0  0  0  0  0  4           0  0  0
   -1.8134   -0.0012    3.8613 C   0  0  0  0  0  4           0  0  0
    2.8113    2.0230   -6.4853 C   0  0  0  0  0  4           0  0  0
   -2.3174    0.0934   -1.0641 C   0  0  0  0  0  4           0  0  0
    0.0000    0.0000    0.0000 C   0  0  0  0  0  4           0  0  0
    5.2598   -4.2205    0.0231 C   0  0  0  0  0  4           0  0  0
    4.9960   -4.8840   -2.2749 C   0  0  0  0  0  4           0  0  0
    6.0659   -6.3934   -0.7134 C   0  0  0  0  0  4           0  0  0
   -0.7924    0.0151   -1.1011 C   0  0  0  0  0  4           0  0  0
    4.6964   -6.0286   -3.2434 C   0  0  0  0  0  4           0  0  0
    5.8047   -7.5906   -1.6301 C   0  0  0  0  0  4           0  0  0
    5.6992   -7.1651   -3.0896 C   0  0  0  0  0  4           0  0  0
    3.7405    3.2205   -6.4550 C   0  0  0  0  0  4           0  0  0
  1  2  2  0     0  0
  1  3  2  0     0  0
  1  5  1  0     0  0
  1 27  1  0     0  0
  4 28  2  0     0  0
  5  9  1  0     0  0
  6 10  1  0     0  0
  6 28  1  0     0  0
  7 11  1  0     0  0
  7 29  1  0     0  0
  8 30  1  0     0  0
  8 31  1  0     0  0
  8 32  1  0     0  0
  9 15  2  0     0  0
  9 16  1  0     0  0
 10 12  2  0     0  0
 10 17  1  0     0  0
 11 18  1  0     0  0
 11 19  2  0     0  0
 12 15  1  0     0  0
 12 33  1  0     0  0
 13 20  2  0     0  0
 13 21  1  0     0  0
 13 29  1  0     0  0
 14 22  1  0     0  0
 14 23  2  0     0  0
 14 30  1  0     0  0
 16 17  2  0     0  0
 18 22  2  0     0  0
 19 23  1  0     0  0
 20 24  1  0     0  0
 21 25  2  0     0  0
 24 26  2  0     0  0
 25 26  1  0     0  0
 27 37  1  0     0  0
 28 33  1  0     0  0
 29 33  2  0     0  0
 31 34  1  0     0  0
 32 35  1  0     0  0
 34 36  1  0     0  0
 35 36  1  0     0  0
M  END
> <standard_type>
pIC50

> <# Confs.>
25

> <canonical_smiles>
O=C1NC2=C(C=C(NS(=O)(CC)=O)C=C2)/C1=C(C3=CC=CC=C3)/NC(C=C4)=CC=C4CN5CCCCC5

> <standard_relation>
=

> <Publication_ID>
nan

> <predicted_activity_value>
6.522878745280337

> <actual_activity_value>
6.6020599913279625

> <Compound>
14

> <standard_units>
nM

> hash
13289132667909043912

$$$$
14_
XXILIB    08252103493D 0   0.00000     0.00000

 37 41  0     1  0            999 V2000
    2.8587   -1.7147   -5.2973 S   0  0  1  0  0  6           0  0  0
    3.9020   -1.7011   -6.3050 O   0  0  0  0  0  2           0  0  0
    3.1739   -1.9757   -3.9052 O   0  0  0  0  0  2           0  0  0
   -3.0463    0.1214   -0.0891 O   0  0  0  0  0  2           0  0  0
    1.9414   -0.2723   -5.4263 N   0  0  0  0  0  3           0  0  0
   -2.7103    0.1360   -2.3982 N   0  0  0  0  0  3           0  0  0
    1.3753   -0.0000   -0.0000 N   0  0  0  0  0  3           0  0  0
    6.3884    4.0889    0.9045 N   0  0  1  0  0  3           0  0  0
    0.7454   -0.0984   -4.6470 C   0  0  0  0  0  4           0  0  0
   -1.6164    0.0748   -3.2553 C   0  0  0  0  0  4           0  0  0
    2.2955    1.0535    0.0000 C   0  0  0  0  0  4           0  0  0
   -0.4194   -0.0095   -2.5372 C   0  0  0  0  0  4           0  0  0
   -0.6222    0.0000    1.3267 C   0  0  0  0  0  4           0  0  0
    4.2330    3.1225    0.0019 C   0  0  0  0  0  4           0  0  0
    0.7716   -0.1270   -3.2392 C   0  0  0  0  0  4           0  0  0
   -0.4795   -0.0277   -5.3359 C   0  0  0  0  0  4           0  0  0
   -1.6796    0.0687   -4.6371 C   0  0  0  0  0  4           0  0  0
    1.9109    2.4025    0.0000 C   0  0  0  0  0  4           0  0  0
    3.6684    0.7608   -0.0031 C   0  0  0  0  0  4           0  0  0
   -0.9229    1.2094    1.9678 C   0  0  0  0  0  4           0  0  0
   -0.9175   -1.2101    1.9695 C   0  0  0  0  0  4           0  0  0
    2.8669    3.4241   -0.0022 C   0  0  0  0  0  4           0  0  0
    4.6254    1.7800   -0.0044 C   0  0  0  0  0  4           0  0  0
   -1.5173    1.2066    3.2311 C   0  0  0  0  0  4           0  0  0
   -1.5128   -1.2085    3.2321 C   0  0  0  0  0  4           0  0  0
   -1.8134   -0.0012    3.8613 C   0  0  0  0  0  4           0  0  0
    1.6290   -2.9002   -5.8038 C   0  0  0  0  0  4           0  0  0
   -2.3174    0.0934   -1.0641 C   0  0  0  0  0  4           0  0  0
    0.0000    0.0000    0.0000 C   0  0  0  0  0  4           0  0  0
    5.2598    4.2205   -0.0231 C   0  0  0  0  0  4           0  0  0
    7.2967    5.2381    0.7554 C   0  0  0  0  0  4           0  0  0
    5.9321    3.9682    2.3003 C   0  0  0  0  0  4           0  0  0
   -0.7924    0.0151   -1.1011 C   0  0  0  0  0  4           0  0  0
    8.5223    5.1041    1.6597 C   0  0  0  0  0  4           0  0  0
    7.1114    3.7923    3.2596 C   0  0  0  0  0  4           0  0  0
    8.1212    4.9249    3.1184 C   0  0  0  0  0  4           0  0  0
    2.2150   -4.2921   -5.9360 C   0  0  0  0  0  4           0  0  0
  1  2  2  0     0  0
  1  3  2  0     0  0
  1  5  1  0     0  0
  1 27  1  0     0  0
  4 28  2  0     0  0
  5  9  1  0     0  0
  6 10  1  0     0  0
  6 28  1  0     0  0
  7 11  1  0     0  0
  7 29  1  0     0  0
  8 30  1  0     0  0
  8 31  1  0     0  0
  8 32  1  0     0  0
  9 15  2  0     0  0
  9 16  1  0     0  0
 10 12  2  0     0  0
 10 17  1  0     0  0
 11 18  1  0     0  0
 11 19  2  0     0  0
 12 15  1  0     0  0
 12 33  1  0     0  0
 13 20  2  0     0  0
 13 21  1  0     0  0
 13 29  1  0     0  0
 14 22  1  0     0  0
 14 23  2  0     0  0
 14 30  1  0     0  0
 16 17  2  0     0  0
 18 22  2  0     0  0
 19 23  1  0     0  0
 20 24  1  0     0  0
 21 25  2  0     0  0
 24 26  2  0     0  0
 25 26  1  0     0  0
 27 37  1  0     0  0
 28 33  1  0     0  0
 29 33  2  0     0  0
 31 34  1  0     0  0
 32 35  1  0     0  0
 34 36  1  0     0  0
 35 36  1  0     0  0
M  END
> <standard_type>
pIC50

> <# Confs.>
25

> <canonical_smiles>
O=C1NC2=C(C=C(NS(=O)(CC)=O)C=C2)/C1=C(C3=CC=CC=C3)/NC(C=C4)=CC=C4CN5CCCCC5

> <standard_relation>
=

> <Publication_ID>
nan

> <predicted_activity_value>
6.522878745280337

> <actual_activity_value>
6.6020599913279625

> <Compound>
14

> <standard_units>
nM

> hash
13289132667909043912

$$$$
14_
XXILIB    08252103493D 0   0.00000     0.00000

 37 41  0     1  0            999 V2000
    2.0098   -0.3950   -6.9259 S   0  0  1  0  0  6           0  0  0
    1.2487    0.8229   -7.1292 O   0  0  0  0  0  2           0  0  0
    3.4288   -0.4430   -7.2250 O   0  0  0  0  0  2           0  0  0
   -3.0326    0.2836    0.0281 O   0  0  0  0  0  2           0  0  0
    1.7303   -0.9669   -5.3341 N   0  0  0  0  0  3           0  0  0
   -2.7922    0.1530   -2.2932 N   0  0  0  0  0  3           0  0  0
    1.3753   -0.0000    0.0000 N   0  0  0  0  0  3           0  0  0
    6.6194    2.1518   -3.2460 N   0  0  1  0  0  3           0  0  0
    0.5418   -0.5832   -4.6213 C   0  0  0  0  0  4           0  0  0
   -1.7401   -0.0457   -3.1832 C   0  0  0  0  0  4           0  0  0
    2.2955    0.5267   -0.9123 C   0  0  0  0  0  4           0  0  0
   -0.5289   -0.1810   -2.5011 C   0  0  0  0  0  4           0  0  0
   -0.5525    0.0000    1.3572 C   0  0  0  0  0  4           0  0  0
    4.2238    1.5242   -2.7348 C   0  0  0  0  0  4           0  0  0
    0.6139   -0.4977   -3.2190 C   0  0  0  0  0  4           0  0  0
   -0.6936   -0.4309   -5.2805 C   0  0  0  0  0  4           0  0  0
   -1.8532   -0.1554   -4.5570 C   0  0  0  0  0  4           0  0  0
    2.0296    1.6591   -1.6965 C   0  0  0  0  0  4           0  0  0
    3.5434   -0.0984   -1.0614 C   0  0  0  0  0  4           0  0  0
   -0.8195    1.2094    2.0131 C   0  0  0  0  0  4           0  0  0
   -0.8140   -1.2101    2.0145 C   0  0  0  0  0  4           0  0  0
    2.9800    2.1500   -2.5984 C   0  0  0  0  0  4           0  0  0
    4.4949    0.3908   -1.9614 C   0  0  0  0  0  4           0  0  0
   -1.3475    1.2066    3.3055 C   0  0  0  0  0  4           0  0  0
   -1.3430   -1.2085    3.3063 C   0  0  0  0  0  4           0  0  0
   -1.6104   -0.0012    3.9503 C   0  0  0  0  0  4           0  0  0
    1.2180   -1.6924   -7.8555 C   0  0  0  0  0  4           0  0  0
   -2.3506    0.1527   -0.9722 C   0  0  0  0  0  4           0  0  0
    0.0000    0.0000    0.0000 C   0  0  0  0  0  4           0  0  0
    5.2361    2.0388   -3.7202 C   0  0  0  0  0  4           0  0  0
    7.4789    2.6672   -4.3248 C   0  0  0  0  0  4           0  0  0
    6.7155    3.0116   -2.0532 C   0  0  0  0  0  4           0  0  0
   -0.8384   -0.0207   -1.0635 C   0  0  0  0  0  4           0  0  0
    8.9430    2.7363   -3.8895 C   0  0  0  0  0  4           0  0  0
    8.1547    3.0948   -1.5399 C   0  0  0  0  0  4           0  0  0
    9.1098    3.5725   -2.6271 C   0  0  0  0  0  4           0  0  0
    1.1731   -1.3718   -9.3366 C   0  0  0  0  0  4           0  0  0
  1  2  2  0     0  0
  1  3  2  0     0  0
  1  5  1  0     0  0
  1 27  1  0     0  0
  4 28  2  0     0  0
  5  9  1  0     0  0
  6 10  1  0     0  0
  6 28  1  0     0  0
  7 11  1  0     0  0
  7 29  1  0     0  0
  8 30  1  0     0  0
  8 31  1  0     0  0
  8 32  1  0     0  0
  9 15  2  0     0  0
  9 16  1  0     0  0
 10 12  2  0     0  0
 10 17  1  0     0  0
 11 18  1  0     0  0
 11 19  2  0     0  0
 12 15  1  0     0  0
 12 33  1  0     0  0
 13 20  2  0     0  0
 13 21  1  0     0  0
 13 29  1  0     0  0
 14 22  1  0     0  0
 14 23  2  0     0  0
 14 30  1  0     0  0
 16 17  2  0     0  0
 18 22  2  0     0  0
 19 23  1  0     0  0
 20 24  1  0     0  0
 21 25  2  0     0  0
 24 26  2  0     0  0
 25 26  1  0     0  0
 27 37  1  0     0  0
 28 33  1  0     0  0
 29 33  2  0     0  0
 31 34  1  0     0  0
 32 35  1  0     0  0
 34 36  1  0     0  0
 35 36  1  0     0  0
M  END
> <standard_type>
pIC50

> <# Confs.>
25

> <canonical_smiles>
O=C1NC2=C(C=C(NS(=O)(CC)=O)C=C2)/C1=C(C3=CC=CC=C3)/NC(C=C4)=CC=C4CN5CCCCC5

> <standard_relation>
=

> <Publication_ID>
nan

> <predicted_activity_value>
6.522878745280337

> <actual_activity_value>
6.6020599913279625

> <Compound>
14

> <standard_units>
nM

> hash
13289132667909043912

$$$$
14_
XXILIB    08252103493D 0   0.00000     0.00000

 37 41  0     1  0            999 V2000
    3.2553    0.8151   -5.2531 S   0  0  1  0  0  6           0  0  0
    3.1688    1.4554   -3.9544 O   0  0  0  0  0  2           0  0  0
    4.4841    0.1766   -5.6862 O   0  0  0  0  0  2           0  0  0
   -3.0463    0.1214   -0.0891 O   0  0  0  0  0  2           0  0  0
    1.9414   -0.2723   -5.4263 N   0  0  0  0  0  3           0  0  0
   -2.7103    0.1360   -2.3982 N   0  0  0  0  0  3           0  0  0
    1.3753   -0.0000    0.0000 N   0  0  0  0  0  3           0  0  0
    5.0317   -5.3150    0.9724 N   0  0  1  0  0  3           0  0  0
    0.7454   -0.0984   -4.6470 C   0  0  0  0  0  4           0  0  0
   -1.6164    0.0748   -3.2553 C   0  0  0  0  0  4           0  0  0
    2.2955   -1.0535    0.0000 C   0  0  0  0  0  4           0  0  0
   -0.4194   -0.0095   -2.5372 C   0  0  0  0  0  4           0  0  0
   -0.6222    0.0000    1.3267 C   0  0  0  0  0  4           0  0  0
    4.2330   -3.1225   -0.0019 C   0  0  0  0  0  4           0  0  0
    0.7716   -0.1270   -3.2392 C   0  0  0  0  0  4           0  0  0
   -0.4795   -0.0277   -5.3359 C   0  0  0  0  0  4           0  0  0
   -1.6796    0.0687   -4.6371 C   0  0  0  0  0  4           0  0  0
    1.9109   -2.4025    0.0000 C   0  0  0  0  0  4           0  0  0
    3.6684   -0.7608    0.0031 C   0  0  0  0  0  4           0  0  0
   -0.9229    1.2094    1.9678 C   0  0  0  0  0  4           0  0  0
   -0.9175   -1.2101    1.9695 C   0  0  0  0  0  4           0  0  0
    2.8669   -3.4241    0.0022 C   0  0  0  0  0  4           0  0  0
    4.6254   -1.7800    0.0044 C   0  0  0  0  0  4           0  0  0
   -1.5173    1.2066    3.2311 C   0  0  0  0  0  4           0  0  0
   -1.5128   -1.2085    3.2321 C   0  0  0  0  0  4           0  0  0
   -1.8134   -0.0012    3.8613 C   0  0  0  0  0  4           0  0  0
    2.8113    2.0230   -6.4853 C   0  0  0  0  0  4           0  0  0
   -2.3174    0.0934   -1.0641 C   0  0  0  0  0  4           0  0  0
    0.0000    0.0000    0.0000 C   0  0  0  0  0  4           0  0  0
    5.2598   -4.2205    0.0231 C   0  0  0  0  0  4           0  0  0
    6.1203   -6.3012    0.8719 C   0  0  0  0  0  4           0  0  0
    4.9104   -4.8181    2.3543 C   0  0  0  0  0  4           0  0  0
   -0.7924    0.0151   -1.1011 C   0  0  0  0  0  4           0  0  0
    5.8838   -7.4929    1.8002 C   0  0  0  0  0  4           0  0  0
    4.6339   -5.9595    3.3354 C   0  0  0  0  0  4           0  0  0
    5.6990   -7.0456    3.2446 C   0  0  0  0  0  4           0  0  0
    3.7405    3.2205   -6.4550 C   0  0  0  0  0  4           0  0  0
  1  2  2  0     0  0
  1  3  2  0     0  0
  1  5  1  0     0  0
  1 27  1  0     0  0
  4 28  2  0     0  0
  5  9  1  0     0  0
  6 10  1  0     0  0
  6 28  1  0     0  0
  7 11  1  0     0  0
  7 29  1  0     0  0
  8 30  1  0     0  0
  8 31  1  0     0  0
  8 32  1  0     0  0
  9 15  2  0     0  0
  9 16  1  0     0  0
 10 12  2  0     0  0
 10 17  1  0     0  0
 11 18  1  0     0  0
 11 19  2  0     0  0
 12 15  1  0     0  0
 12 33  1  0     0  0
 13 20  2  0     0  0
 13 21  1  0     0  0
 13 29  1  0     0  0
 14 22  1  0     0  0
 14 23  2  0     0  0
 14 30  1  0     0  0
 16 17  2  0     0  0
 18 22  2  0     0  0
 19 23  1  0     0  0
 20 24  1  0     0  0
 21 25  2  0     0  0
 24 26  2  0     0  0
 25 26  1  0     0  0
 27 37  1  0     0  0
 28 33  1  0     0  0
 29 33  2  0     0  0
 31 34  1  0     0  0
 32 35  1  0     0  0
 34 36  1  0     0  0
 35 36  1  0     0  0
M  END
> <standard_type>
pIC50

> <# Confs.>
25

> <canonical_smiles>
O=C1NC2=C(C=C(NS(=O)(CC)=O)C=C2)/C1=C(C3=CC=CC=C3)/NC(C=C4)=CC=C4CN5CCCCC5

> <standard_relation>
=

> <Publication_ID>
nan

> <predicted_activity_value>
6.522878745280337

> <actual_activity_value>
6.6020599913279625

> <Compound>
14

> <standard_units>
nM

> hash
13289132667909043912

$$$$
14_
XXILIB    08252103493D 0   0.00000     0.00000

 37 41  0     1  0            999 V2000
    3.2553    0.8151   -5.2531 S   0  0  1  0  0  6           0  0  0
    3.1688    1.4554   -3.9544 O   0  0  0  0  0  2           0  0  0
    4.4841    0.1766   -5.6862 O   0  0  0  0  0  2           0  0  0
   -3.0463    0.1214   -0.0891 O   0  0  0  0  0  2           0  0  0
    1.9414   -0.2723   -5.4263 N   0  0  0  0  0  3           0  0  0
   -2.7103    0.1360   -2.3982 N   0  0  0  0  0  3           0  0  0
    1.3753    0.0000   -0.0000 N   0  0  0  0  0  3           0  0  0
    6.3884   -4.0889   -0.9045 N   0  0  1  0  0  3           0  0  0
    0.7454   -0.0984   -4.6470 C   0  0  0  0  0  4           0  0  0
   -1.6164    0.0748   -3.2553 C   0  0  0  0  0  4           0  0  0
    2.2955   -1.0535    0.0000 C   0  0  0  0  0  4           0  0  0
   -0.4194   -0.0095   -2.5372 C   0  0  0  0  0  4           0  0  0
   -0.6222    0.0000    1.3267 C   0  0  0  0  0  4           0  0  0
    4.2330   -3.1225   -0.0019 C   0  0  0  0  0  4           0  0  0
    0.7716   -0.1270   -3.2392 C   0  0  0  0  0  4           0  0  0
   -0.4795   -0.0277   -5.3359 C   0  0  0  0  0  4           0  0  0
   -1.6796    0.0687   -4.6371 C   0  0  0  0  0  4           0  0  0
    1.9109   -2.4025    0.0000 C   0  0  0  0  0  4           0  0  0
    3.6684   -0.7608    0.0031 C   0  0  0  0  0  4           0  0  0
   -0.9229    1.2094    1.9678 C   0  0  0  0  0  4           0  0  0
   -0.9175   -1.2101    1.9695 C   0  0  0  0  0  4           0  0  0
    2.8669   -3.4241    0.0022 C   0  0  0  0  0  4           0  0  0
    4.6254   -1.7800    0.0044 C   0  0  0  0  0  4           0  0  0
   -1.5173    1.2066    3.2311 C   0  0  0  0  0  4           0  0  0
   -1.5128   -1.2085    3.2321 C   0  0  0  0  0  4           0  0  0
   -1.8134   -0.0012    3.8613 C   0  0  0  0  0  4           0  0  0
    2.8113    2.0230   -6.4853 C   0  0  0  0  0  4           0  0  0
   -2.3174    0.0934   -1.0641 C   0  0  0  0  0  4           0  0  0
    0.0000    0.0000    0.0000 C   0  0  0  0  0  4           0  0  0
    5.2598   -4.2205    0.0231 C   0  0  0  0  0  4           0  0  0
    7.2967   -5.2381   -0.7554 C   0  0  0  0  0  4           0  0  0
    5.9321   -3.9682   -2.3003 C   0  0  0  0  0  4           0  0  0
   -0.7924    0.0151   -1.1011 C   0  0  0  0  0  4           0  0  0
    8.5223   -5.1041   -1.6597 C   0  0  0  0  0  4           0  0  0
    7.1114   -3.7923   -3.2596 C   0  0  0  0  0  4           0  0  0
    8.1212   -4.9249   -3.1184 C   0  0  0  0  0  4           0  0  0
    3.7405    3.2205   -6.4550 C   0  0  0  0  0  4           0  0  0
  1  2  2  0     0  0
  1  3  2  0     0  0
  1  5  1  0     0  0
  1 27  1  0     0  0
  4 28  2  0     0  0
  5  9  1  0     0  0
  6 10  1  0     0  0
  6 28  1  0     0  0
  7 11  1  0     0  0
  7 29  1  0     0  0
  8 30  1  0     0  0
  8 31  1  0     0  0
  8 32  1  0     0  0
  9 15  2  0     0  0
  9 16  1  0     0  0
 10 12  2  0     0  0
 10 17  1  0     0  0
 11 18  1  0     0  0
 11 19  2  0     0  0
 12 15  1  0     0  0
 12 33  1  0     0  0
 13 20  2  0     0  0
 13 21  1  0     0  0
 13 29  1  0     0  0
 14 22  1  0     0  0
 14 23  2  0     0  0
 14 30  1  0     0  0
 16 17  2  0     0  0
 18 22  2  0     0  0
 19 23  1  0     0  0
 20 24  1  0     0  0
 21 25  2  0     0  0
 24 26  2  0     0  0
 25 26  1  0     0  0
 27 37  1  0     0  0
 28 33  1  0     0  0
 29 33  2  0     0  0
 31 34  1  0     0  0
 32 35  1  0     0  0
 34 36  1  0     0  0
 35 36  1  0     0  0
M  END
> <standard_type>
pIC50

> <# Confs.>
25

> <canonical_smiles>
O=C1NC2=C(C=C(NS(=O)(CC)=O)C=C2)/C1=C(C3=CC=CC=C3)/NC(C=C4)=CC=C4CN5CCCCC5

> <standard_relation>
=

> <Publication_ID>
nan

> <predicted_activity_value>
6.522878745280337

> <actual_activity_value>
6.6020599913279625

> <Compound>
14

> <standard_units>
nM

> hash
13289132667909043912

$$$$
14_
XXILIB    08252103493D 0   0.00000     0.00000

 37 41  0     1  0            999 V2000
    2.8587   -1.7147   -5.2973 S   0  0  1  0  0  6           0  0  0
    3.9020   -1.7011   -6.3050 O   0  0  0  0  0  2           0  0  0
    3.1739   -1.9757   -3.9052 O   0  0  0  0  0  2           0  0  0
   -3.0463    0.1214   -0.0891 O   0  0  0  0  0  2           0  0  0
    1.9414   -0.2723   -5.4263 N   0  0  0  0  0  3           0  0  0
   -2.7103    0.1360   -2.3982 N   0  0  0  0  0  3           0  0  0
    1.3753    0.0000    0.0000 N   0  0  0  0  0  3           0  0  0
    5.0349   -5.3541   -0.8801 N   0  0  1  0  0  3           0  0  0
    0.7454   -0.0984   -4.6470 C   0  0  0  0  0  4           0  0  0
   -1.6164    0.0748   -3.2553 C   0  0  0  0  0  4           0  0  0
    2.2955   -1.0535    0.0000 C   0  0  0  0  0  4           0  0  0
   -0.4194   -0.0095   -2.5372 C   0  0  0  0  0  4           0  0  0
   -0.6222    0.0000    1.3267 C   0  0  0  0  0  4           0  0  0
    4.2330   -3.1225   -0.0019 C   0  0  0  0  0  4           0  0  0
    0.7716   -0.1270   -3.2392 C   0  0  0  0  0  4           0  0  0
   -0.4795   -0.0277   -5.3359 C   0  0  0  0  0  4           0  0  0
   -1.6796    0.0687   -4.6371 C   0  0  0  0  0  4           0  0  0
    1.9109   -2.4025    0.0000 C   0  0  0  0  0  4           0  0  0
    3.6684   -0.7608    0.0031 C   0  0  0  0  0  4           0  0  0
   -0.9229    1.2094    1.9678 C   0  0  0  0  0  4           0  0  0
   -0.9175   -1.2101    1.9695 C   0  0  0  0  0  4           0  0  0
    2.8669   -3.4241    0.0022 C   0  0  0  0  0  4           0  0  0
    4.6254   -1.7800    0.0044 C   0  0  0  0  0  4           0  0  0
   -1.5173    1.2066    3.2311 C   0  0  0  0  0  4           0  0  0
   -1.5128   -1.2085    3.2321 C   0  0  0  0  0  4           0  0  0
   -1.8134   -0.0012    3.8613 C   0  0  0  0  0  4           0  0  0
    1.6290   -2.9002   -5.8038 C   0  0  0  0  0  4           0  0  0
   -2.3174    0.0934   -1.0641 C   0  0  0  0  0  4           0  0  0
    0.0000    0.0000    0.0000 C   0  0  0  0  0  4           0  0  0
    5.2598   -4.2205    0.0231 C   0  0  0  0  0  4           0  0  0
    4.9960   -4.8840   -2.2749 C   0  0  0  0  0  4           0  0  0
    6.0659   -6.3934   -0.7134 C   0  0  0  0  0  4           0  0  0
   -0.7924    0.0151   -1.1011 C   0  0  0  0  0  4           0  0  0
    4.6964   -6.0286   -3.2434 C   0  0  0  0  0  4           0  0  0
    5.8047   -7.5906   -1.6301 C   0  0  0  0  0  4           0  0  0
    5.6992   -7.1651   -3.0896 C   0  0  0  0  0  4           0  0  0
    2.2150   -4.2921   -5.9360 C   0  0  0  0  0  4           0  0  0
  1  2  2  0     0  0
  1  3  2  0     0  0
  1  5  1  0     0  0
  1 27  1  0     0  0
  4 28  2  0     0  0
  5  9  1  0     0  0
  6 10  1  0     0  0
  6 28  1  0     0  0
  7 11  1  0     0  0
  7 29  1  0     0  0
  8 30  1  0     0  0
  8 31  1  0     0  0
  8 32  1  0     0  0
  9 15  2  0     0  0
  9 16  1  0     0  0
 10 12  2  0     0  0
 10 17  1  0     0  0
 11 18  1  0     0  0
 11 19  2  0     0  0
 12 15  1  0     0  0
 12 33  1  0     0  0
 13 20  2  0     0  0
 13 21  1  0     0  0
 13 29  1  0     0  0
 14 22  1  0     0  0
 14 23  2  0     0  0
 14 30  1  0     0  0
 16 17  2  0     0  0
 18 22  2  0     0  0
 19 23  1  0     0  0
 20 24  1  0     0  0
 21 25  2  0     0  0
 24 26  2  0     0  0
 25 26  1  0     0  0
 27 37  1  0     0  0
 28 33  1  0     0  0
 29 33  2  0     0  0
 31 34  1  0     0  0
 32 35  1  0     0  0
 34 36  1  0     0  0
 35 36  1  0     0  0
M  END
> <standard_type>
pIC50

> <# Confs.>
25

> <canonical_smiles>
O=C1NC2=C(C=C(NS(=O)(CC)=O)C=C2)/C1=C(C3=CC=CC=C3)/NC(C=C4)=CC=C4CN5CCCCC5

> <standard_relation>
=

> <Publication_ID>
nan

> <predicted_activity_value>
6.522878745280337

> <actual_activity_value>
6.6020599913279625

> <Compound>
14

> <standard_units>
nM

> hash
13289132667909043912

$$$$
14_
XXILIB    08252103493D 0   0.00000     0.00000

 37 41  0     1  0            999 V2000
    2.8587   -1.7147   -5.2973 S   0  0  1  0  0  6           0  0  0
    3.9020   -1.7011   -6.3050 O   0  0  0  0  0  2           0  0  0
    3.1739   -1.9757   -3.9052 O   0  0  0  0  0  2           0  0  0
   -3.0463    0.1214   -0.0891 O   0  0  0  0  0  2           0  0  0
    1.9414   -0.2723   -5.4263 N   0  0  0  0  0  3           0  0  0
   -2.7103    0.1360   -2.3982 N   0  0  0  0  0  3           0  0  0
    1.3753    0.0000   -0.0000 N   0  0  0  0  0  3           0  0  0
    6.3852    4.0498   -0.9481 N   0  0  1  0  0  3           0  0  0
    0.7454   -0.0984   -4.6470 C   0  0  0  0  0  4           0  0  0
   -1.6164    0.0748   -3.2553 C   0  0  0  0  0  4           0  0  0
    2.2955    1.0535   -0.0000 C   0  0  0  0  0  4           0  0  0
   -0.4194   -0.0095   -2.5372 C   0  0  0  0  0  4           0  0  0
   -0.6222    0.0000    1.3267 C   0  0  0  0  0  4           0  0  0
    4.2330    3.1225    0.0019 C   0  0  0  0  0  4           0  0  0
    0.7716   -0.1270   -3.2392 C   0  0  0  0  0  4           0  0  0
   -0.4795   -0.0277   -5.3359 C   0  0  0  0  0  4           0  0  0
   -1.6796    0.0687   -4.6371 C   0  0  0  0  0  4           0  0  0
    1.9109    2.4025    0.0000 C   0  0  0  0  0  4           0  0  0
    3.6684    0.7608   -0.0031 C   0  0  0  0  0  4           0  0  0
   -0.9229    1.2094    1.9678 C   0  0  0  0  0  4           0  0  0
   -0.9175   -1.2101    1.9695 C   0  0  0  0  0  4           0  0  0
    2.8669    3.4241   -0.0022 C   0  0  0  0  0  4           0  0  0
    4.6254    1.7800   -0.0044 C   0  0  0  0  0  4           0  0  0
   -1.5173    1.2066    3.2311 C   0  0  0  0  0  4           0  0  0
   -1.5128   -1.2085    3.2321 C   0  0  0  0  0  4           0  0  0
   -1.8134   -0.0012    3.8613 C   0  0  0  0  0  4           0  0  0
    1.6290   -2.9002   -5.8038 C   0  0  0  0  0  4           0  0  0
   -2.3174    0.0934   -1.0641 C   0  0  0  0  0  4           0  0  0
    0.0000    0.0000    0.0000 C   0  0  0  0  0  4           0  0  0
    5.2598    4.2205   -0.0231 C   0  0  0  0  0  4           0  0  0
    5.8873    3.9460   -2.3298 C   0  0  0  0  0  4           0  0  0
    7.3564    5.1516   -0.8300 C   0  0  0  0  0  4           0  0  0
   -0.7924    0.0151   -1.1011 C   0  0  0  0  0  4           0  0  0
    7.0273    3.7000   -3.3187 C   0  0  0  0  0  4           0  0  0
    8.5474    4.9486   -1.7693 C   0  0  0  0  0  4           0  0  0
    8.0970    4.7796   -3.2153 C   0  0  0  0  0  4           0  0  0
    2.2150   -4.2921   -5.9360 C   0  0  0  0  0  4           0  0  0
  1  2  2  0     0  0
  1  3  2  0     0  0
  1  5  1  0     0  0
  1 27  1  0     0  0
  4 28  2  0     0  0
  5  9  1  0     0  0
  6 10  1  0     0  0
  6 28  1  0     0  0
  7 11  1  0     0  0
  7 29  1  0     0  0
  8 30  1  0     0  0
  8 31  1  0     0  0
  8 32  1  0     0  0
  9 15  2  0     0  0
  9 16  1  0     0  0
 10 12  2  0     0  0
 10 17  1  0     0  0
 11 18  1  0     0  0
 11 19  2  0     0  0
 12 15  1  0     0  0
 12 33  1  0     0  0
 13 20  2  0     0  0
 13 21  1  0     0  0
 13 29  1  0     0  0
 14 22  1  0     0  0
 14 23  2  0     0  0
 14 30  1  0     0  0
 16 17  2  0     0  0
 18 22  2  0     0  0
 19 23  1  0     0  0
 20 24  1  0     0  0
 21 25  2  0     0  0
 24 26  2  0     0  0
 25 26  1  0     0  0
 27 37  1  0     0  0
 28 33  1  0     0  0
 29 33  2  0     0  0
 31 34  1  0     0  0
 32 35  1  0     0  0
 34 36  1  0     0  0
 35 36  1  0     0  0
M  END
> <standard_type>
pIC50

> <# Confs.>
25

> <canonical_smiles>
O=C1NC2=C(C=C(NS(=O)(CC)=O)C=C2)/C1=C(C3=CC=CC=C3)/NC(C=C4)=CC=C4CN5CCCCC5

> <standard_relation>
=

> <Publication_ID>
nan

> <predicted_activity_value>
6.522878745280337

> <actual_activity_value>
6.6020599913279625

> <Compound>
14

> <standard_units>
nM

> hash
13289132667909043912

$$$$
14_
XXILIB    08252103493D 0   0.00000     0.00000

 37 41  0     1  0            999 V2000
   -7.2559   -0.0780    0.2134 S   0  0  1  0  0  6           0  0  0
   -7.1883   -1.2651   -0.6174 O   0  0  0  0  0  2           0  0  0
   -7.9052   -0.1151    1.5105 O   0  0  0  0  0  2           0  0  0
    0.7550   -0.4472   -2.8892 O   0  0  0  0  0  2           0  0  0
   -5.6819    0.5833    0.3686 N   0  0  0  0  0  3           0  0  0
   -1.5426   -0.2637   -3.2550 N   0  0  0  0  0  3           0  0  0
    1.3753    0.0000   -0.0000 N   0  0  0  0  0  3           0  0  0
    6.6194   -2.1518    3.2460 N   0  0  1  0  0  3           0  0  0
   -4.6711    0.2940   -0.6126 C   0  0  0  0  0  4           0  0  0
   -2.6742   -0.0870   -2.4646 C   0  0  0  0  0  4           0  0  0
    2.2955   -0.5267    0.9123 C   0  0  0  0  0  4           0  0  0
   -2.3263    0.0539   -1.1190 C   0  0  0  0  0  4           0  0  0
   -0.5424   -0.0000    1.3613 C   0  0  0  0  0  4           0  0  0
    4.2238   -1.5242    2.7348 C   0  0  0  0  0  4           0  0  0
   -3.3303    0.2732   -0.1875 C   0  0  0  0  0  4           0  0  0
   -4.9864    0.1630   -1.9787 C   0  0  0  0  0  4           0  0  0
   -3.9788   -0.0385   -2.9208 C   0  0  0  0  0  4           0  0  0
    2.0296   -1.6591    1.6965 C   0  0  0  0  0  4           0  0  0
    3.5434    0.0984    1.0614 C   0  0  0  0  0  4           0  0  0
   -0.2428    1.0473    2.2430 C   0  0  0  0  0  4           0  0  0
   -1.3618   -1.0508    1.7962 C   0  0  0  0  0  4           0  0  0
    2.9800   -2.1500    2.5984 C   0  0  0  0  0  4           0  0  0
    4.4949   -0.3908    1.9614 C   0  0  0  0  0  4           0  0  0
   -0.7622    1.0458    3.5388 C   0  0  0  0  0  4           0  0  0
   -1.8800   -1.0480    3.0924 C   0  0  0  0  0  4           0  0  0
   -1.5813    0.0000    3.9620 C   0  0  0  0  0  4           0  0  0
   -8.0313    1.2106   -0.7418 C   0  0  0  0  0  4           0  0  0
   -0.3798   -0.2616   -2.4893 C   0  0  0  0  0  4           0  0  0
    0.0000    0.0000   -0.0000 C   0  0  0  0  0  4           0  0  0
    5.2361   -2.0388    3.7202 C   0  0  0  0  0  4           0  0  0
    7.4789   -2.6672    4.3248 C   0  0  0  0  0  4           0  0  0
    6.7155   -3.0116    2.0532 C   0  0  0  0  0  4           0  0  0
   -0.8472   -0.0364   -1.0574 C   0  0  0  0  0  4           0  0  0
    8.9430   -2.7363    3.8895 C   0  0  0  0  0  4           0  0  0
    8.1547   -3.0948    1.5399 C   0  0  0  0  0  4           0  0  0
    9.1098   -3.5725    2.6271 C   0  0  0  0  0  4           0  0  0
   -9.4316    0.8215   -1.1733 C   0  0  0  0  0  4           0  0  0
  1  2  2  0     0  0
  1  3  2  0     0  0
  1  5  1  0     0  0
  1 27  1  0     0  0
  4 28  2  0     0  0
  5  9  1  0     0  0
  6 10  1  0     0  0
  6 28  1  0     0  0
  7 11  1  0     0  0
  7 29  1  0     0  0
  8 30  1  0     0  0
  8 31  1  0     0  0
  8 32  1  0     0  0
  9 15  2  0     0  0
  9 16  1  0     0  0
 10 12  2  0     0  0
 10 17  1  0     0  0
 11 18  1  0     0  0
 11 19  2  0     0  0
 12 15  1  0     0  0
 12 33  1  0     0  0
 13 20  2  0     0  0
 13 21  1  0     0  0
 13 29  1  0     0  0
 14 22  1  0     0  0
 14 23  2  0     0  0
 14 30  1  0     0  0
 16 17  2  0     0  0
 18 22  2  0     0  0
 19 23  1  0     0  0
 20 24  1  0     0  0
 21 25  2  0     0  0
 24 26  2  0     0  0
 25 26  1  0     0  0
 27 37  1  0     0  0
 28 33  1  0     0  0
 29 33  2  0     0  0
 31 34  1  0     0  0
 32 35  1  0     0  0
 34 36  1  0     0  0
 35 36  1  0     0  0
M  END
> <standard_type>
pIC50

> <# Confs.>
25

> <canonical_smiles>
O=C1NC2=C(C=C(NS(=O)(CC)=O)C=C2)/C1=C(C3=CC=CC=C3)/NC(C=C4)=CC=C4CN5CCCCC5

> <standard_relation>
=

> <Publication_ID>
nan

> <predicted_activity_value>
6.522878745280337

> <actual_activity_value>
6.6020599913279625

> <Compound>
14

> <standard_units>
nM

> hash
13289132667909043912

$$$$
14_
XXILIB    08252103493D 0   0.00000     0.00000

 37 41  0     1  0            999 V2000
    2.4338   -1.8377   -5.9219 S   0  0  1  0  0  6           0  0  0
    1.2796   -2.7163   -5.9227 O   0  0  0  0  0  2           0  0  0
    3.2928   -1.7386   -7.0870 O   0  0  0  0  0  2           0  0  0
   -3.0463    0.1214   -0.0891 O   0  0  0  0  0  2           0  0  0
    1.9414   -0.2723   -5.4263 N   0  0  0  0  0  3           0  0  0
   -2.7103    0.1360   -2.3982 N   0  0  0  0  0  3           0  0  0
    1.3753    0.0000   -0.0000 N   0  0  0  0  0  3           0  0  0
    5.7123   -4.7296   -1.2759 N   0  0  1  0  0  3           0  0  0
    0.7454   -0.0984   -4.6470 C   0  0  0  0  0  4           0  0  0
   -1.6164    0.0748   -3.2553 C   0  0  0  0  0  4           0  0  0
    2.2955   -1.0535    0.0000 C   0  0  0  0  0  4           0  0  0
   -0.4194   -0.0095   -2.5372 C   0  0  0  0  0  4           0  0  0
   -0.6222    0.0000    1.3267 C   0  0  0  0  0  4           0  0  0
    4.2330   -3.1225   -0.0019 C   0  0  0  0  0  4           0  0  0
    0.7716   -0.1270   -3.2392 C   0  0  0  0  0  4           0  0  0
   -0.4795   -0.0277   -5.3359 C   0  0  0  0  0  4           0  0  0
   -1.6796    0.0687   -4.6371 C   0  0  0  0  0  4           0  0  0
    1.9109   -2.4025    0.0000 C   0  0  0  0  0  4           0  0  0
    3.6684   -0.7608    0.0031 C   0  0  0  0  0  4           0  0  0
   -0.9229    1.2094    1.9678 C   0  0  0  0  0  4           0  0  0
   -0.9175   -1.2101    1.9695 C   0  0  0  0  0  4           0  0  0
    2.8669   -3.4241    0.0022 C   0  0  0  0  0  4           0  0  0
    4.6254   -1.7800    0.0044 C   0  0  0  0  0  4           0  0  0
   -1.5173    1.2066    3.2311 C   0  0  0  0  0  4           0  0  0
   -1.5128   -1.2085    3.2321 C   0  0  0  0  0  4           0  0  0
   -1.8134   -0.0012    3.8613 C   0  0  0  0  0  4           0  0  0
    3.4567   -2.2854   -4.5336 C   0  0  0  0  0  4           0  0  0
   -2.3174    0.0934   -1.0641 C   0  0  0  0  0  4           0  0  0
    0.0000   -0.0000    0.0000 C   0  0  0  0  0  4           0  0  0
    5.2598   -4.2205    0.0231 C   0  0  0  0  0  4           0  0  0
    6.7104   -5.7936   -1.0775 C   0  0  0  0  0  4           0  0  0
    4.5857   -5.2225   -2.0877 C   0  0  0  0  0  4           0  0  0
   -0.7924    0.0151   -1.1011 C   0  0  0  0  0  4           0  0  0
    7.2566   -6.3048   -2.4111 C   0  0  0  0  0  4           0  0  0
    5.0585   -5.7166   -3.4567 C   0  0  0  0  0  4           0  0  0
    6.1360   -6.7860   -3.3240 C   0  0  0  0  0  4           0  0  0
    4.6960   -1.4164   -4.4486 C   0  0  0  0  0  4           0  0  0
  1  2  2  0     0  0
  1  3  2  0     0  0
  1  5  1  0     0  0
  1 27  1  0     0  0
  4 28  2  0     0  0
  5  9  1  0     0  0
  6 10  1  0     0  0
  6 28  1  0     0  0
  7 11  1  0     0  0
  7 29  1  0     0  0
  8 30  1  0     0  0
  8 31  1  0     0  0
  8 32  1  0     0  0
  9 15  2  0     0  0
  9 16  1  0     0  0
 10 12  2  0     0  0
 10 17  1  0     0  0
 11 18  1  0     0  0
 11 19  2  0     0  0
 12 15  1  0     0  0
 12 33  1  0     0  0
 13 20  2  0     0  0
 13 21  1  0     0  0
 13 29  1  0     0  0
 14 22  1  0     0  0
 14 23  2  0     0  0
 14 30  1  0     0  0
 16 17  2  0     0  0
 18 22  2  0     0  0
 19 23  1  0     0  0
 20 24  1  0     0  0
 21 25  2  0     0  0
 24 26  2  0     0  0
 25 26  1  0     0  0
 27 37  1  0     0  0
 28 33  1  0     0  0
 29 33  2  0     0  0
 31 34  1  0     0  0
 32 35  1  0     0  0
 34 36  1  0     0  0
 35 36  1  0     0  0
M  END
> <standard_type>
pIC50

> <# Confs.>
25

> <canonical_smiles>
O=C1NC2=C(C=C(NS(=O)(CC)=O)C=C2)/C1=C(C3=CC=CC=C3)/NC(C=C4)=CC=C4CN5CCCCC5

> <standard_relation>
=

> <Publication_ID>
nan

> <predicted_activity_value>
6.522878745280337

> <actual_activity_value>
6.6020599913279625

> <Compound>
14

> <standard_units>
nM

> hash
13289132667909043912

$$$$
14_
XXILIB    08252103493D 0   0.00000     0.00000

 37 41  0     1  0            999 V2000
    2.8587   -1.7147   -5.2973 S   0  0  1  0  0  6           0  0  0
    3.9020   -1.7011   -6.3050 O   0  0  0  0  0  2           0  0  0
    3.1739   -1.9757   -3.9052 O   0  0  0  0  0  2           0  0  0
   -3.0463    0.1214   -0.0891 O   0  0  0  0  0  2           0  0  0
    1.9414   -0.2723   -5.4263 N   0  0  0  0  0  3           0  0  0
   -2.7103    0.1360   -2.3982 N   0  0  0  0  0  3           0  0  0
    1.3753    0.0000   -0.0000 N   0  0  0  0  0  3           0  0  0
    6.3884   -4.0889   -0.9045 N   0  0  1  0  0  3           0  0  0
    0.7454   -0.0984   -4.6470 C   0  0  0  0  0  4           0  0  0
   -1.6164    0.0748   -3.2553 C   0  0  0  0  0  4           0  0  0
    2.2955   -1.0535    0.0000 C   0  0  0  0  0  4           0  0  0
   -0.4194   -0.0095   -2.5372 C   0  0  0  0  0  4           0  0  0
   -0.6222    0.0000    1.3267 C   0  0  0  0  0  4           0  0  0
    4.2330   -3.1225   -0.0019 C   0  0  0  0  0  4           0  0  0
    0.7716   -0.1270   -3.2392 C   0  0  0  0  0  4           0  0  0
   -0.4795   -0.0277   -5.3359 C   0  0  0  0  0  4           0  0  0
   -1.6796    0.0687   -4.6371 C   0  0  0  0  0  4           0  0  0
    1.9109   -2.4025    0.0000 C   0  0  0  0  0  4           0  0  0
    3.6684   -0.7608    0.0031 C   0  0  0  0  0  4           0  0  0
   -0.9229    1.2094    1.9678 C   0  0  0  0  0  4           0  0  0
   -0.9175   -1.2101    1.9695 C   0  0  0  0  0  4           0  0  0
    2.8669   -3.4241    0.0022 C   0  0  0  0  0  4           0  0  0
    4.6254   -1.7800    0.0044 C   0  0  0  0  0  4           0  0  0
   -1.5173    1.2066    3.2311 C   0  0  0  0  0  4           0  0  0
   -1.5128   -1.2085    3.2321 C   0  0  0  0  0  4           0  0  0
   -1.8134   -0.0012    3.8613 C   0  0  0  0  0  4           0  0  0
    1.6290   -2.9002   -5.8038 C   0  0  0  0  0  4           0  0  0
   -2.3174    0.0934   -1.0641 C   0  0  0  0  0  4           0  0  0
    0.0000    0.0000    0.0000 C   0  0  0  0  0  4           0  0  0
    5.2598   -4.2205    0.0231 C   0  0  0  0  0  4           0  0  0
    7.2967   -5.2381   -0.7554 C   0  0  0  0  0  4           0  0  0
    5.9321   -3.9682   -2.3003 C   0  0  0  0  0  4           0  0  0
   -0.7924    0.0151   -1.1011 C   0  0  0  0  0  4           0  0  0
    8.5223   -5.1041   -1.6597 C   0  0  0  0  0  4           0  0  0
    7.1114   -3.7923   -3.2596 C   0  0  0  0  0  4           0  0  0
    8.1212   -4.9249   -3.1184 C   0  0  0  0  0  4           0  0  0
    2.2150   -4.2921   -5.9360 C   0  0  0  0  0  4           0  0  0
  1  2  2  0     0  0
  1  3  2  0     0  0
  1  5  1  0     0  0
  1 27  1  0     0  0
  4 28  2  0     0  0
  5  9  1  0     0  0
  6 10  1  0     0  0
  6 28  1  0     0  0
  7 11  1  0     0  0
  7 29  1  0     0  0
  8 30  1  0     0  0
  8 31  1  0     0  0
  8 32  1  0     0  0
  9 15  2  0     0  0
  9 16  1  0     0  0
 10 12  2  0     0  0
 10 17  1  0     0  0
 11 18  1  0     0  0
 11 19  2  0     0  0
 12 15  1  0     0  0
 12 33  1  0     0  0
 13 20  2  0     0  0
 13 21  1  0     0  0
 13 29  1  0     0  0
 14 22  1  0     0  0
 14 23  2  0     0  0
 14 30  1  0     0  0
 16 17  2  0     0  0
 18 22  2  0     0  0
 19 23  1  0     0  0
 20 24  1  0     0  0
 21 25  2  0     0  0
 24 26  2  0     0  0
 25 26  1  0     0  0
 27 37  1  0     0  0
 28 33  1  0     0  0
 29 33  2  0     0  0
 31 34  1  0     0  0
 32 35  1  0     0  0
 34 36  1  0     0  0
 35 36  1  0     0  0
M  END
> <standard_type>
pIC50

> <# Confs.>
25

> <canonical_smiles>
O=C1NC2=C(C=C(NS(=O)(CC)=O)C=C2)/C1=C(C3=CC=CC=C3)/NC(C=C4)=CC=C4CN5CCCCC5

> <standard_relation>
=

> <Publication_ID>
nan

> <predicted_activity_value>
6.522878745280337

> <actual_activity_value>
6.6020599913279625

> <Compound>
14

> <standard_units>
nM

> hash
13289132667909043912

$$$$
14_
XXILIB    08252103493D 0   0.00000     0.00000

 37 41  0     1  0            999 V2000
   -7.2559   -0.0780    0.2134 S   0  0  1  0  0  6           0  0  0
   -7.1883   -1.2651   -0.6174 O   0  0  0  0  0  2           0  0  0
   -7.9052   -0.1151    1.5105 O   0  0  0  0  0  2           0  0  0
    0.7550   -0.4472   -2.8892 O   0  0  0  0  0  2           0  0  0
   -5.6819    0.5833    0.3686 N   0  0  0  0  0  3           0  0  0
   -1.5426   -0.2637   -3.2550 N   0  0  0  0  0  3           0  0  0
    1.3753    0.0000    0.0000 N   0  0  0  0  0  3           0  0  0
    5.9163   -1.0385    4.5497 N   0  0  1  0  0  3           0  0  0
   -4.6711    0.2940   -0.6126 C   0  0  0  0  0  4           0  0  0
   -2.6742   -0.0870   -2.4646 C   0  0  0  0  0  4           0  0  0
    2.2955   -0.5267    0.9123 C   0  0  0  0  0  4           0  0  0
   -2.3263    0.0539   -1.1190 C   0  0  0  0  0  4           0  0  0
   -0.5424   -0.0000    1.3613 C   0  0  0  0  0  4           0  0  0
    4.2238   -1.5242    2.7348 C   0  0  0  0  0  4           0  0  0
   -3.3303    0.2732   -0.1875 C   0  0  0  0  0  4           0  0  0
   -4.9864    0.1630   -1.9787 C   0  0  0  0  0  4           0  0  0
   -3.9788   -0.0385   -2.9208 C   0  0  0  0  0  4           0  0  0
    2.0296   -1.6591    1.6965 C   0  0  0  0  0  4           0  0  0
    3.5434    0.0984    1.0614 C   0  0  0  0  0  4           0  0  0
   -0.2428    1.0473    2.2430 C   0  0  0  0  0  4           0  0  0
   -1.3618   -1.0508    1.7962 C   0  0  0  0  0  4           0  0  0
    2.9800   -2.1500    2.5984 C   0  0  0  0  0  4           0  0  0
    4.4949   -0.3908    1.9614 C   0  0  0  0  0  4           0  0  0
   -0.7622    1.0458    3.5388 C   0  0  0  0  0  4           0  0  0
   -1.8800   -1.0480    3.0924 C   0  0  0  0  0  4           0  0  0
   -1.5813    0.0000    3.9620 C   0  0  0  0  0  4           0  0  0
   -8.0313    1.2106   -0.7418 C   0  0  0  0  0  4           0  0  0
   -0.3798   -0.2616   -2.4893 C   0  0  0  0  0  4           0  0  0
    0.0000    0.0000   -0.0000 C   0  0  0  0  0  4           0  0  0
    5.2361   -2.0388    3.7202 C   0  0  0  0  0  4           0  0  0
    4.9291   -0.2968    5.3516 C   0  0  0  0  0  4           0  0  0
    6.9313   -1.6560    5.4213 C   0  0  0  0  0  4           0  0  0
   -0.8472   -0.0364   -1.0574 C   0  0  0  0  0  4           0  0  0
    5.5936    0.8021    6.1815 C   0  0  0  0  0  4           0  0  0
    7.6646   -0.6037    6.2561 C   0  0  0  0  0  4           0  0  0
    6.6927    0.2388    7.0733 C   0  0  0  0  0  4           0  0  0
   -9.4316    0.8215   -1.1733 C   0  0  0  0  0  4           0  0  0
  1  2  2  0     0  0
  1  3  2  0     0  0
  1  5  1  0     0  0
  1 27  1  0     0  0
  4 28  2  0     0  0
  5  9  1  0     0  0
  6 10  1  0     0  0
  6 28  1  0     0  0
  7 11  1  0     0  0
  7 29  1  0     0  0
  8 30  1  0     0  0
  8 31  1  0     0  0
  8 32  1  0     0  0
  9 15  2  0     0  0
  9 16  1  0     0  0
 10 12  2  0     0  0
 10 17  1  0     0  0
 11 18  1  0     0  0
 11 19  2  0     0  0
 12 15  1  0     0  0
 12 33  1  0     0  0
 13 20  2  0     0  0
 13 21  1  0     0  0
 13 29  1  0     0  0
 14 22  1  0     0  0
 14 23  2  0     0  0
 14 30  1  0     0  0
 16 17  2  0     0  0
 18 22  2  0     0  0
 19 23  1  0     0  0
 20 24  1  0     0  0
 21 25  2  0     0  0
 24 26  2  0     0  0
 25 26  1  0     0  0
 27 37  1  0     0  0
 28 33  1  0     0  0
 29 33  2  0     0  0
 31 34  1  0     0  0
 32 35  1  0     0  0
 34 36  1  0     0  0
 35 36  1  0     0  0
M  END
> <standard_type>
pIC50

> <# Confs.>
25

> <canonical_smiles>
O=C1NC2=C(C=C(NS(=O)(CC)=O)C=C2)/C1=C(C3=CC=CC=C3)/NC(C=C4)=CC=C4CN5CCCCC5

> <standard_relation>
=

> <Publication_ID>
nan

> <predicted_activity_value>
6.522878745280337

> <actual_activity_value>
6.6020599913279625

> <Compound>
14

> <standard_units>
nM

> hash
13289132667909043912

$$$$
14_
XXILIB    08252103493D 0   0.00000     0.00000

 37 41  0     1  0            999 V2000
    2.8700   -1.2993   -5.7602 S   0  0  1  0  0  6           0  0  0
    1.9589   -2.4275   -5.7933 O   0  0  0  0  0  2           0  0  0
    3.7554   -1.0265   -6.8768 O   0  0  0  0  0  2           0  0  0
   -3.0490   -0.0322   -0.0846 O   0  0  0  0  0  2           0  0  0
    1.9901    0.1151   -5.3552 N   0  0  0  0  0  3           0  0  0
   -2.7179   -0.0340   -2.3940 N   0  0  0  0  0  3           0  0  0
    1.3753    0.0000   -0.0000 N   0  0  0  0  0  3           0  0  0
    6.3884   -4.0889   -0.9045 N   0  0  1  0  0  3           0  0  0
    0.7387    0.0176   -4.6535 C   0  0  0  0  0  4           0  0  0
   -1.6242   -0.0162   -3.2535 C   0  0  0  0  0  4           0  0  0
    2.2955   -1.0535    0.0000 C   0  0  0  0  0  4           0  0  0
   -0.4228    0.0042   -2.5379 C   0  0  0  0  0  4           0  0  0
   -0.6211    0.0000    1.3272 C   0  0  0  0  0  4           0  0  0
    4.2330   -3.1225   -0.0019 C   0  0  0  0  0  4           0  0  0
    0.7694    0.0378   -3.2460 C   0  0  0  0  0  4           0  0  0
   -0.4893    0.0244   -5.3406 C   0  0  0  0  0  4           0  0  0
   -1.6903   -0.0039   -4.6358 C   0  0  0  0  0  4           0  0  0
    1.9109   -2.4025    0.0000 C   0  0  0  0  0  4           0  0  0
    3.6684   -0.7608    0.0031 C   0  0  0  0  0  4           0  0  0
   -0.9213    1.2094    1.9686 C   0  0  0  0  0  4           0  0  0
   -0.9159   -1.2101    1.9702 C   0  0  0  0  0  4           0  0  0
    2.8669   -3.4241    0.0022 C   0  0  0  0  0  4           0  0  0
    4.6254   -1.7800    0.0044 C   0  0  0  0  0  4           0  0  0
   -1.5147    1.2066    3.2323 C   0  0  0  0  0  4           0  0  0
   -1.5103   -1.2085    3.2333 C   0  0  0  0  0  4           0  0  0
   -1.8103   -0.0012    3.8628 C   0  0  0  0  0  4           0  0  0
    3.8770   -1.4566   -4.2988 C   0  0  0  0  0  4           0  0  0
   -2.3207   -0.0243   -1.0608 C   0  0  0  0  0  4           0  0  0
    0.0000    0.0000    0.0000 C   0  0  0  0  0  4           0  0  0
    5.2598   -4.2205    0.0231 C   0  0  0  0  0  4           0  0  0
    7.2967   -5.2381   -0.7554 C   0  0  0  0  0  4           0  0  0
    5.9321   -3.9682   -2.3003 C   0  0  0  0  0  4           0  0  0
   -0.7935   -0.0035   -1.1009 C   0  0  0  0  0  4           0  0  0
    8.5223   -5.1041   -1.6597 C   0  0  0  0  0  4           0  0  0
    7.1114   -3.7923   -3.2596 C   0  0  0  0  0  4           0  0  0
    8.1212   -4.9249   -3.1184 C   0  0  0  0  0  4           0  0  0
    4.8673   -0.3153   -4.1765 C   0  0  0  0  0  4           0  0  0
  1  2  2  0     0  0
  1  3  2  0     0  0
  1  5  1  0     0  0
  1 27  1  0     0  0
  4 28  2  0     0  0
  5  9  1  0     0  0
  6 10  1  0     0  0
  6 28  1  0     0  0
  7 11  1  0     0  0
  7 29  1  0     0  0
  8 30  1  0     0  0
  8 31  1  0     0  0
  8 32  1  0     0  0
  9 15  2  0     0  0
  9 16  1  0     0  0
 10 12  2  0     0  0
 10 17  1  0     0  0
 11 18  1  0     0  0
 11 19  2  0     0  0
 12 15  1  0     0  0
 12 33  1  0     0  0
 13 20  2  0     0  0
 13 21  1  0     0  0
 13 29  1  0     0  0
 14 22  1  0     0  0
 14 23  2  0     0  0
 14 30  1  0     0  0
 16 17  2  0     0  0
 18 22  2  0     0  0
 19 23  1  0     0  0
 20 24  1  0     0  0
 21 25  2  0     0  0
 24 26  2  0     0  0
 25 26  1  0     0  0
 27 37  1  0     0  0
 28 33  1  0     0  0
 29 33  2  0     0  0
 31 34  1  0     0  0
 32 35  1  0     0  0
 34 36  1  0     0  0
 35 36  1  0     0  0
M  END
> <standard_type>
pIC50

> <# Confs.>
25

> <canonical_smiles>
O=C1NC2=C(C=C(NS(=O)(CC)=O)C=C2)/C1=C(C3=CC=CC=C3)/NC(C=C4)=CC=C4CN5CCCCC5

> <standard_relation>
=

> <Publication_ID>
nan

> <predicted_activity_value>
6.522878745280337

> <actual_activity_value>
6.6020599913279625

> <Compound>
14

> <standard_units>
nM

> hash
13289132667909043912

$$$$
14_
XXILIB    08252103493D 0   0.00000     0.00000

 37 41  0     1  0            999 V2000
    3.2553    0.8151   -5.2531 S   0  0  1  0  0  6           0  0  0
    3.1688    1.4554   -3.9544 O   0  0  0  0  0  2           0  0  0
    4.4841    0.1766   -5.6862 O   0  0  0  0  0  2           0  0  0
   -3.0463    0.1214   -0.0891 O   0  0  0  0  0  2           0  0  0
    1.9414   -0.2723   -5.4263 N   0  0  0  0  0  3           0  0  0
   -2.7103    0.1360   -2.3982 N   0  0  0  0  0  3           0  0  0
    1.3753   -0.0000    0.0000 N   0  0  0  0  0  3           0  0  0
    6.3852   -4.0498    0.9481 N   0  0  1  0  0  3           0  0  0
    0.7454   -0.0984   -4.6470 C   0  0  0  0  0  4           0  0  0
   -1.6164    0.0748   -3.2553 C   0  0  0  0  0  4           0  0  0
    2.2955   -1.0535    0.0000 C   0  0  0  0  0  4           0  0  0
   -0.4194   -0.0095   -2.5372 C   0  0  0  0  0  4           0  0  0
   -0.6222    0.0000    1.3267 C   0  0  0  0  0  4           0  0  0
    4.2330   -3.1225   -0.0019 C   0  0  0  0  0  4           0  0  0
    0.7716   -0.1270   -3.2392 C   0  0  0  0  0  4           0  0  0
   -0.4795   -0.0277   -5.3359 C   0  0  0  0  0  4           0  0  0
   -1.6796    0.0687   -4.6371 C   0  0  0  0  0  4           0  0  0
    1.9109   -2.4025    0.0000 C   0  0  0  0  0  4           0  0  0
    3.6684   -0.7608    0.0031 C   0  0  0  0  0  4           0  0  0
   -0.9229    1.2094    1.9678 C   0  0  0  0  0  4           0  0  0
   -0.9175   -1.2101    1.9695 C   0  0  0  0  0  4           0  0  0
    2.8669   -3.4241    0.0022 C   0  0  0  0  0  4           0  0  0
    4.6254   -1.7800    0.0044 C   0  0  0  0  0  4           0  0  0
   -1.5173    1.2066    3.2311 C   0  0  0  0  0  4           0  0  0
   -1.5128   -1.2085    3.2321 C   0  0  0  0  0  4           0  0  0
   -1.8134   -0.0012    3.8613 C   0  0  0  0  0  4           0  0  0
    2.8113    2.0230   -6.4853 C   0  0  0  0  0  4           0  0  0
   -2.3174    0.0934   -1.0641 C   0  0  0  0  0  4           0  0  0
    0.0000    0.0000    0.0000 C   0  0  0  0  0  4           0  0  0
    5.2598   -4.2205    0.0231 C   0  0  0  0  0  4           0  0  0
    5.8873   -3.9460    2.3298 C   0  0  0  0  0  4           0  0  0
    7.3564   -5.1516    0.8300 C   0  0  0  0  0  4           0  0  0
   -0.7924    0.0151   -1.1011 C   0  0  0  0  0  4           0  0  0
    7.0273   -3.7000    3.3187 C   0  0  0  0  0  4           0  0  0
    8.5474   -4.9486    1.7693 C   0  0  0  0  0  4           0  0  0
    8.0970   -4.7796    3.2153 C   0  0  0  0  0  4           0  0  0
    3.7405    3.2205   -6.4550 C   0  0  0  0  0  4           0  0  0
  1  2  2  0     0  0
  1  3  2  0     0  0
  1  5  1  0     0  0
  1 27  1  0     0  0
  4 28  2  0     0  0
  5  9  1  0     0  0
  6 10  1  0     0  0
  6 28  1  0     0  0
  7 11  1  0     0  0
  7 29  1  0     0  0
  8 30  1  0     0  0
  8 31  1  0     0  0
  8 32  1  0     0  0
  9 15  2  0     0  0
  9 16  1  0     0  0
 10 12  2  0     0  0
 10 17  1  0     0  0
 11 18  1  0     0  0
 11 19  2  0     0  0
 12 15  1  0     0  0
 12 33  1  0     0  0
 13 20  2  0     0  0
 13 21  1  0     0  0
 13 29  1  0     0  0
 14 22  1  0     0  0
 14 23  2  0     0  0
 14 30  1  0     0  0
 16 17  2  0     0  0
 18 22  2  0     0  0
 19 23  1  0     0  0
 20 24  1  0     0  0
 21 25  2  0     0  0
 24 26  2  0     0  0
 25 26  1  0     0  0
 27 37  1  0     0  0
 28 33  1  0     0  0
 29 33  2  0     0  0
 31 34  1  0     0  0
 32 35  1  0     0  0
 34 36  1  0     0  0
 35 36  1  0     0  0
M  END
> <standard_type>
pIC50

> <# Confs.>
25

> <canonical_smiles>
O=C1NC2=C(C=C(NS(=O)(CC)=O)C=C2)/C1=C(C3=CC=CC=C3)/NC(C=C4)=CC=C4CN5CCCCC5

> <standard_relation>
=

> <Publication_ID>
nan

> <predicted_activity_value>
6.522878745280337

> <actual_activity_value>
6.6020599913279625

> <Compound>
14

> <standard_units>
nM

> hash
13289132667909043912

$$$$
21_
XXILIB    08252103423D 0   0.00000     0.00000

 41 45  0     1  0            999 V2000
    3.9963    0.4445    0.7698 S   0  0  0  0  0  2           0  0  0
   -3.0942    0.3197   -4.6508 O   0  0  0  0  0  2           0  0  0
   -0.1879    0.1859   -4.8603 O   0  0  0  0  0  2           0  0  0
    9.2458   -4.5854    2.6275 O   0  0  0  0  0  2           0  0  0
    5.7305    0.5226    4.8968 O   0  0  0  0  0  2           0  0  0
   -2.5516    6.6266   -9.1728 O   0  0  0  0  0  2           0  0  0
    1.8580    1.1559    2.0031 N   0  0  0  0  0  3           0  0  0
   -0.6593    0.0000    1.1855 N   0  0  0  0  0  3           0  0  0
   -2.7581    0.0616    0.0284 N   0  0  0  0  0  3           0  0  0
    1.4139   -0.0000   -0.0000 N   0  0  0  0  0  3           0  0  0
    6.7070   -0.4504    3.0248 N   0  0  0  0  0  3           0  0  0
   -3.7387    4.3474   -6.4367 N   0  0  2  0  0  3           0  0  0
    2.2657    0.5284    0.9152 C   0  0  0  0  0  4           0  0  0
    4.1784    1.3079    2.2351 C   0  0  0  0  0  4           0  0  0
   -2.2587    0.2233   -3.5748 C   0  0  0  0  0  4           0  0  0
   -0.8715    0.1581   -3.6779 C   0  0  0  0  0  4           0  0  0
    8.5367   -3.6514    3.3283 C   0  0  0  0  0  4           0  0  0
   -1.9982    0.0239    1.1322 C   0  0  0  0  0  4           0  0  0
    0.0000    0.0000    0.0000 C   0  0  0  0  0  4           0  0  0
   -2.1124    0.0884   -1.1443 C   0  0  0  0  0  4           0  0  0
    2.9328    1.5931    2.7491 C   0  0  0  0  0  4           0  0  0
    7.2616   -1.6013    3.6155 C   0  0  0  0  0  4           0  0  0
   -0.7049    0.0650   -1.2299 C   0  0  0  0  0  4           0  0  0
   -2.8616    0.1571   -2.3157 C   0  0  0  0  0  4           0  0  0
    7.9700   -2.4892    2.7918 C   0  0  0  0  0  4           0  0  0
   -0.1027    0.1096   -2.5130 C   0  0  0  0  0  4           0  0  0
    8.3919   -3.9185    4.6927 C   0  0  0  0  0  4           0  0  0
    7.1247   -1.8793    4.9800 C   0  0  0  0  0  4           0  0  0
    7.6891   -3.0375    5.5141 C   0  0  0  0  0  4           0  0  0
    5.9827    0.5217    3.6923 C   0  0  0  0  0  4           0  0  0
   -2.9060    1.4701   -5.4756 C   0  0  0  0  0  4           0  0  0
   -2.4913    5.5026   -8.3023 C   0  0  0  0  0  4           0  0  0
    0.0513   -1.0871   -5.4554 C   0  0  0  0  0  4           0  0  0
    9.3987   -4.3160    1.2362 C   0  0  0  0  0  4           0  0  0
   -3.7048    5.4781   -7.3826 C   0  0  2  0  0  4           0  0  0
   -4.1770    3.0778   -7.0205 C   0  0  0  0  0  4           0  0  0
   -4.6697    4.7759   -5.3844 C   0  0  0  0  0  4           0  0  0
    5.5192    1.6369    2.7829 C   0  0  0  0  0  4           0  0  0
   -4.2411    1.8485   -6.1041 C   0  0  0  0  0  4           0  0  0
   -3.7406    6.7120   -6.4664 C   0  0  0  0  0  4           0  0  0
   -4.2570    6.2110   -5.1257 C   0  0  0  0  0  4           0  0  0
  1 13  1  0     0  0
  1 14  1  0     0  0
  2 15  1  0     0  0
  2 31  1  0     0  0
  3 16  1  0     0  0
  3 33  1  0     0  0
  4 17  1  0     0  0
  4 34  1  0     0  0
  5 30  2  0     0  0
  6 32  1  0     0  0
  7 13  2  0     0  0
  7 21  1  0     0  0
  8 18  1  0     0  0
  8 19  2  0     0  0
  9 18  2  0     0  0
  9 20  1  0     0  0
 10 13  1  0     0  0
 10 19  1  0     0  0
 11 22  1  0     0  0
 11 30  1  0     0  0
 12 35  1  0     0  0
 12 36  1  0     0  0
 12 37  1  0     0  0
 14 21  2  0     0  0
 14 38  1  0     0  0
 15 16  2  0     0  0
 15 24  1  0     0  0
 16 26  1  0     0  0
 17 25  1  0     0  0
 17 27  2  0     0  0
 19 23  1  0     0  0
 20 23  1  0     0  0
 20 24  2  0     0  0
 22 25  2  0     0  0
 22 28  1  0     0  0
 23 26  2  0     0  0
 27 29  1  0     0  0
 28 29  2  0     0  0
 30 38  1  0     0  0
 31 39  1  0     0  0
 32 35  1  0     0  0
 35 40  1  0     0  0
 36 39  1  0     0  0
 37 41  1  0     0  0
 40 41  1  0     0  0
M  END
> <standard_type>
pIC50

> <# Confs.>
25

> <canonical_smiles>
COC1=CC=CC(NC(CC2=CN=C(NC3=NC=NC4=CC(OCCCN5[C@H](CO)CCC5)=C(OC)C=C43)S2)=O)=C1

> <standard_relation>
=

> <Publication_ID>
Wang_2009

> <predicted_activity_value>
7.795880017344075

> <actual_activity_value>
8.301029995663981

> <Compound>
21

> <standard_units>
nM

> hash
12533943428153564438

$$$$
21_
XXILIB    08252103423D 0   0.00000     0.00000

 41 45  0     1  0            999 V2000
    3.9963    0.4445    0.7698 S   0  0  0  0  0  2           0  0  0
   -3.0942    0.3197   -4.6508 O   0  0  0  0  0  2           0  0  0
   -0.1879    0.1859   -4.8603 O   0  0  0  0  0  2           0  0  0
    7.0659   -3.7087    7.4370 O   0  0  0  0  0  2           0  0  0
    5.2382    2.1902    5.1002 O   0  0  0  0  0  2           0  0  0
   -2.5516    6.6266   -9.1728 O   0  0  0  0  0  2           0  0  0
    1.8580    1.1559    2.0031 N   0  0  0  0  0  3           0  0  0
   -0.6593    0.0000    1.1855 N   0  0  0  0  0  3           0  0  0
   -2.7581    0.0616    0.0284 N   0  0  0  0  0  3           0  0  0
    1.4139   -0.0000    0.0000 N   0  0  0  0  0  3           0  0  0
    5.9617    0.0510    4.5479 N   0  0  0  0  0  3           0  0  0
   -3.7387    4.3474   -6.4367 N   0  0  2  0  0  3           0  0  0
    2.2657    0.5284    0.9152 C   0  0  0  0  0  4           0  0  0
    4.1784    1.3079    2.2351 C   0  0  0  0  0  4           0  0  0
   -2.2587    0.2233   -3.5748 C   0  0  0  0  0  4           0  0  0
   -0.8715    0.1581   -3.6779 C   0  0  0  0  0  4           0  0  0
    6.6520   -2.4274    7.2063 C   0  0  0  0  0  4           0  0  0
   -1.9982    0.0239    1.1322 C   0  0  0  0  0  4           0  0  0
    0.0000    0.0000    0.0000 C   0  0  0  0  0  4           0  0  0
   -2.1124    0.0884   -1.1443 C   0  0  0  0  0  4           0  0  0
    2.9328    1.5931    2.7491 C   0  0  0  0  0  4           0  0  0
    6.0838   -0.5003    5.8372 C   0  0  0  0  0  4           0  0  0
   -0.7049    0.0650   -1.2299 C   0  0  0  0  0  4           0  0  0
   -2.8616    0.1571   -2.3157 C   0  0  0  0  0  4           0  0  0
    6.5190   -1.8296    5.9475 C   0  0  0  0  0  4           0  0  0
   -0.1027    0.1096   -2.5130 C   0  0  0  0  0  4           0  0  0
    6.3491   -1.6873    8.3528 C   0  0  0  0  0  4           0  0  0
    5.7849    0.2305    6.9924 C   0  0  0  0  0  4           0  0  0
    5.9172   -0.3656    8.2464 C   0  0  0  0  0  4           0  0  0
    5.5476    1.3409    4.2651 C   0  0  0  0  0  4           0  0  0
   -2.9060    1.4701   -5.4756 C   0  0  0  0  0  4           0  0  0
   -2.4913    5.5026   -8.3023 C   0  0  0  0  0  4           0  0  0
    0.0513   -1.0871   -5.4554 C   0  0  0  0  0  4           0  0  0
    7.3787   -4.4668    6.2710 C   0  0  0  0  0  4           0  0  0
   -3.7048    5.4781   -7.3826 C   0  0  2  0  0  4           0  0  0
   -4.1770    3.0778   -7.0205 C   0  0  0  0  0  4           0  0  0
   -4.6697    4.7759   -5.3844 C   0  0  0  0  0  4           0  0  0
    5.5192    1.6369    2.7829 C   0  0  0  0  0  4           0  0  0
   -4.2411    1.8485   -6.1041 C   0  0  0  0  0  4           0  0  0
   -3.7406    6.7120   -6.4664 C   0  0  0  0  0  4           0  0  0
   -4.2570    6.2110   -5.1257 C   0  0  0  0  0  4           0  0  0
  1 13  1  0     0  0
  1 14  1  0     0  0
  2 15  1  0     0  0
  2 31  1  0     0  0
  3 16  1  0     0  0
  3 33  1  0     0  0
  4 17  1  0     0  0
  4 34  1  0     0  0
  5 30  2  0     0  0
  6 32  1  0     0  0
  7 13  2  0     0  0
  7 21  1  0     0  0
  8 18  1  0     0  0
  8 19  2  0     0  0
  9 18  2  0     0  0
  9 20  1  0     0  0
 10 13  1  0     0  0
 10 19  1  0     0  0
 11 22  1  0     0  0
 11 30  1  0     0  0
 12 35  1  0     0  0
 12 36  1  0     0  0
 12 37  1  0     0  0
 14 21  2  0     0  0
 14 38  1  0     0  0
 15 16  2  0     0  0
 15 24  1  0     0  0
 16 26  1  0     0  0
 17 25  1  0     0  0
 17 27  2  0     0  0
 19 23  1  0     0  0
 20 23  1  0     0  0
 20 24  2  0     0  0
 22 25  2  0     0  0
 22 28  1  0     0  0
 23 26  2  0     0  0
 27 29  1  0     0  0
 28 29  2  0     0  0
 30 38  1  0     0  0
 31 39  1  0     0  0
 32 35  1  0     0  0
 35 40  1  0     0  0
 36 39  1  0     0  0
 37 41  1  0     0  0
 40 41  1  0     0  0
M  END
> <standard_type>
pIC50

> <# Confs.>
25

> <canonical_smiles>
COC1=CC=CC(NC(CC2=CN=C(NC3=NC=NC4=CC(OCCCN5[C@H](CO)CCC5)=C(OC)C=C43)S2)=O)=C1

> <standard_relation>
=

> <Publication_ID>
Wang_2009

> <predicted_activity_value>
7.795880017344075

> <actual_activity_value>
8.301029995663981

> <Compound>
21

> <standard_units>
nM

> hash
12533943428153564438

$$$$
21_
XXILIB    08252103423D 0   0.00000     0.00000

 41 45  0     1  0            999 V2000
    3.9963    0.4445    0.7698 S   0  0  0  0  0  2           0  0  0
   -3.0942    0.3197   -4.6508 O   0  0  0  0  0  2           0  0  0
   -0.1879    0.1859   -4.8603 O   0  0  0  0  0  2           0  0  0
    6.9295    8.3200    0.3380 O   0  0  0  0  0  2           0  0  0
    5.2323    3.3926    4.3924 O   0  0  0  0  0  2           0  0  0
   -2.5516    6.6266   -9.1728 O   0  0  0  0  0  2           0  0  0
    1.8580    1.1559    2.0031 N   0  0  0  0  0  3           0  0  0
   -0.6593    0.0000    1.1855 N   0  0  0  0  0  3           0  0  0
   -2.7581    0.0616    0.0284 N   0  0  0  0  0  3           0  0  0
    1.4139    0.0000   -0.0000 N   0  0  0  0  0  3           0  0  0
    5.9180    3.9557    2.2437 N   0  0  0  0  0  3           0  0  0
   -3.7387    4.3474   -6.4367 N   0  0  2  0  0  3           0  0  0
    2.2657    0.5284    0.9152 C   0  0  0  0  0  4           0  0  0
    4.1784    1.3079    2.2351 C   0  0  0  0  0  4           0  0  0
   -2.2587    0.2233   -3.5748 C   0  0  0  0  0  4           0  0  0
   -0.8715    0.1581   -3.6779 C   0  0  0  0  0  4           0  0  0
    6.5509    7.4908    1.3555 C   0  0  0  0  0  4           0  0  0
   -1.9982    0.0239    1.1322 C   0  0  0  0  0  4           0  0  0
    0.0000    0.0000    0.0000 C   0  0  0  0  0  4           0  0  0
   -2.1124    0.0884   -1.1443 C   0  0  0  0  0  4           0  0  0
    2.9328    1.5931    2.7491 C   0  0  0  0  0  4           0  0  0
    6.0248    5.3520    2.3851 C   0  0  0  0  0  4           0  0  0
   -0.7049    0.0650   -1.2299 C   0  0  0  0  0  4           0  0  0
   -2.8616    0.1571   -2.3157 C   0  0  0  0  0  4           0  0  0
    6.4238    6.0996    1.2668 C   0  0  0  0  0  4           0  0  0
   -0.1027    0.1096   -2.5130 C   0  0  0  0  0  4           0  0  0
    6.2748    8.1289    2.5682 C   0  0  0  0  0  4           0  0  0
    5.7500    6.0027    3.5930 C   0  0  0  0  0  4           0  0  0
    5.8771    7.3888    3.6811 C   0  0  0  0  0  4           0  0  0
    5.5391    3.0768    3.2433 C   0  0  0  0  0  4           0  0  0
   -2.9060    1.4701   -5.4756 C   0  0  0  0  0  4           0  0  0
   -2.4913    5.5026   -8.3023 C   0  0  0  0  0  4           0  0  0
    0.0513   -1.0871   -5.4554 C   0  0  0  0  0  4           0  0  0
    7.2095    7.6742   -0.9015 C   0  0  0  0  0  4           0  0  0
   -3.7048    5.4781   -7.3826 C   0  0  2  0  0  4           0  0  0
   -4.1770    3.0778   -7.0205 C   0  0  0  0  0  4           0  0  0
   -4.6697    4.7759   -5.3844 C   0  0  0  0  0  4           0  0  0
    5.5192    1.6369    2.7829 C   0  0  0  0  0  4           0  0  0
   -4.2411    1.8485   -6.1041 C   0  0  0  0  0  4           0  0  0
   -3.7406    6.7120   -6.4664 C   0  0  0  0  0  4           0  0  0
   -4.2570    6.2110   -5.1257 C   0  0  0  0  0  4           0  0  0
  1 13  1  0     0  0
  1 14  1  0     0  0
  2 15  1  0     0  0
  2 31  1  0     0  0
  3 16  1  0     0  0
  3 33  1  0     0  0
  4 17  1  0     0  0
  4 34  1  0     0  0
  5 30  2  0     0  0
  6 32  1  0     0  0
  7 13  2  0     0  0
  7 21  1  0     0  0
  8 18  1  0     0  0
  8 19  2  0     0  0
  9 18  2  0     0  0
  9 20  1  0     0  0
 10 13  1  0     0  0
 10 19  1  0     0  0
 11 22  1  0     0  0
 11 30  1  0     0  0
 12 35  1  0     0  0
 12 36  1  0     0  0
 12 37  1  0     0  0
 14 21  2  0     0  0
 14 38  1  0     0  0
 15 16  2  0     0  0
 15 24  1  0     0  0
 16 26  1  0     0  0
 17 25  1  0     0  0
 17 27  2  0     0  0
 19 23  1  0     0  0
 20 23  1  0     0  0
 20 24  2  0     0  0
 22 25  2  0     0  0
 22 28  1  0     0  0
 23 26  2  0     0  0
 27 29  1  0     0  0
 28 29  2  0     0  0
 30 38  1  0     0  0
 31 39  1  0     0  0
 32 35  1  0     0  0
 35 40  1  0     0  0
 36 39  1  0     0  0
 37 41  1  0     0  0
 40 41  1  0     0  0
M  END
> <standard_type>
pIC50

> <# Confs.>
25

> <canonical_smiles>
COC1=CC=CC(NC(CC2=CN=C(NC3=NC=NC4=CC(OCCCN5[C@H](CO)CCC5)=C(OC)C=C43)S2)=O)=C1

> <standard_relation>
=

> <Publication_ID>
Wang_2009

> <predicted_activity_value>
7.795880017344075

> <actual_activity_value>
8.301029995663981

> <Compound>
21

> <standard_units>
nM

> hash
12533943428153564438

$$$$
21_
XXILIB    08252103423D 0   0.00000     0.00000

 41 45  0     1  0            999 V2000
    3.9963    0.4445    0.7698 S   0  0  0  0  0  2           0  0  0
   -3.0942    0.3197   -4.6508 O   0  0  0  0  0  2           0  0  0
   -0.1879    0.1859   -4.8603 O   0  0  0  0  0  2           0  0  0
    9.2458   -4.5854    2.6275 O   0  0  0  0  0  2           0  0  0
    5.7305    0.5226    4.8968 O   0  0  0  0  0  2           0  0  0
   -2.2196   -3.6392   -9.1916 O   0  0  0  0  0  2           0  0  0
    1.8580    1.1559    2.0031 N   0  0  0  0  0  3           0  0  0
   -0.6593    0.0000    1.1855 N   0  0  0  0  0  3           0  0  0
   -2.7581    0.0616    0.0284 N   0  0  0  0  0  3           0  0  0
    1.4139   -0.0000   -0.0000 N   0  0  0  0  0  3           0  0  0
    6.7070   -0.4504    3.0248 N   0  0  0  0  0  3           0  0  0
   -2.5076   -0.0266   -8.2137 N   0  0  2  0  0  3           0  0  0
    2.2657    0.5284    0.9152 C   0  0  0  0  0  4           0  0  0
    4.1784    1.3079    2.2351 C   0  0  0  0  0  4           0  0  0
   -2.2587    0.2233   -3.5748 C   0  0  0  0  0  4           0  0  0
   -0.8715    0.1581   -3.6779 C   0  0  0  0  0  4           0  0  0
    8.5367   -3.6514    3.3283 C   0  0  0  0  0  4           0  0  0
   -1.9982    0.0239    1.1322 C   0  0  0  0  0  4           0  0  0
    0.0000    0.0000    0.0000 C   0  0  0  0  0  4           0  0  0
   -2.1124    0.0884   -1.1443 C   0  0  0  0  0  4           0  0  0
    2.9328    1.5931    2.7491 C   0  0  0  0  0  4           0  0  0
    7.2616   -1.6013    3.6155 C   0  0  0  0  0  4           0  0  0
   -0.7049    0.0650   -1.2299 C   0  0  0  0  0  4           0  0  0
   -2.8616    0.1571   -2.3157 C   0  0  0  0  0  4           0  0  0
    7.9700   -2.4892    2.7918 C   0  0  0  0  0  4           0  0  0
   -0.1027    0.1096   -2.5130 C   0  0  0  0  0  4           0  0  0
    8.3919   -3.9185    4.6927 C   0  0  0  0  0  4           0  0  0
    7.1247   -1.8793    4.9800 C   0  0  0  0  0  4           0  0  0
    7.6891   -3.0375    5.5141 C   0  0  0  0  0  4           0  0  0
    5.9827    0.5217    3.6923 C   0  0  0  0  0  4           0  0  0
   -2.9060    1.4701   -5.4756 C   0  0  0  0  0  4           0  0  0
   -2.2458   -2.5358   -8.2935 C   0  0  0  0  0  4           0  0  0
    0.0513   -1.0871   -5.4554 C   0  0  0  0  0  4           0  0  0
    9.3987   -4.3160    1.2362 C   0  0  0  0  0  4           0  0  0
   -2.4642   -1.2360   -9.0562 C   0  0  2  0  0  4           0  0  0
   -3.7793    0.1870   -7.5196 C   0  0  0  0  0  4           0  0  0
   -2.2392    1.0789   -9.1430 C   0  0  0  0  0  4           0  0  0
    5.5192    1.6369    2.7829 C   0  0  0  0  0  4           0  0  0
   -3.9096    1.4239   -6.6207 C   0  0  0  0  0  4           0  0  0
   -1.3073   -0.9534  -10.0283 C   0  0  0  0  0  4           0  0  0
   -1.0906    0.5518   -9.9795 C   0  0  0  0  0  4           0  0  0
  1 13  1  0     0  0
  1 14  1  0     0  0
  2 15  1  0     0  0
  2 31  1  0     0  0
  3 16  1  0     0  0
  3 33  1  0     0  0
  4 17  1  0     0  0
  4 34  1  0     0  0
  5 30  2  0     0  0
  6 32  1  0     0  0
  7 13  2  0     0  0
  7 21  1  0     0  0
  8 18  1  0     0  0
  8 19  2  0     0  0
  9 18  2  0     0  0
  9 20  1  0     0  0
 10 13  1  0     0  0
 10 19  1  0     0  0
 11 22  1  0     0  0
 11 30  1  0     0  0
 12 35  1  0     0  0
 12 36  1  0     0  0
 12 37  1  0     0  0
 14 21  2  0     0  0
 14 38  1  0     0  0
 15 16  2  0     0  0
 15 24  1  0     0  0
 16 26  1  0     0  0
 17 25  1  0     0  0
 17 27  2  0     0  0
 19 23  1  0     0  0
 20 23  1  0     0  0
 20 24  2  0     0  0
 22 25  2  0     0  0
 22 28  1  0     0  0
 23 26  2  0     0  0
 27 29  1  0     0  0
 28 29  2  0     0  0
 30 38  1  0     0  0
 31 39  1  0     0  0
 32 35  1  0     0  0
 35 40  1  0     0  0
 36 39  1  0     0  0
 37 41  1  0     0  0
 40 41  1  0     0  0
M  END
> <standard_type>
pIC50

> <# Confs.>
25

> <canonical_smiles>
COC1=CC=CC(NC(CC2=CN=C(NC3=NC=NC4=CC(OCCCN5[C@H](CO)CCC5)=C(OC)C=C43)S2)=O)=C1

> <standard_relation>
=

> <Publication_ID>
Wang_2009

> <predicted_activity_value>
7.795880017344075

> <actual_activity_value>
8.301029995663981

> <Compound>
21

> <standard_units>
nM

> hash
12533943428153564438

$$$$
21_
XXILIB    08252103423D 0   0.00000     0.00000

 41 45  0     1  0            999 V2000
    3.9963    0.4445    0.7698 S   0  0  0  0  0  2           0  0  0
   -3.0942    0.3197   -4.6508 O   0  0  0  0  0  2           0  0  0
   -0.1879    0.1859   -4.8603 O   0  0  0  0  0  2           0  0  0
    9.2458   -4.5854    2.6275 O   0  0  0  0  0  2           0  0  0
    5.7305    0.5226    4.8968 O   0  0  0  0  0  2           0  0  0
   -3.1170   -5.4013   -9.9224 O   0  0  0  0  0  2           0  0  0
    1.8580    1.1559    2.0031 N   0  0  0  0  0  3           0  0  0
   -0.6593    0.0000    1.1855 N   0  0  0  0  0  3           0  0  0
   -2.7581    0.0616    0.0284 N   0  0  0  0  0  3           0  0  0
    1.4139   -0.0000   -0.0000 N   0  0  0  0  0  3           0  0  0
    6.7070   -0.4504    3.0248 N   0  0  0  0  0  3           0  0  0
   -3.5452   -1.9810   -8.4364 N   0  0  2  0  0  3           0  0  0
    2.2657    0.5284    0.9152 C   0  0  0  0  0  4           0  0  0
    4.1784    1.3079    2.2351 C   0  0  0  0  0  4           0  0  0
   -2.2587    0.2233   -3.5748 C   0  0  0  0  0  4           0  0  0
   -0.8715    0.1581   -3.6779 C   0  0  0  0  0  4           0  0  0
    8.5367   -3.6514    3.3283 C   0  0  0  0  0  4           0  0  0
   -1.9982    0.0239    1.1322 C   0  0  0  0  0  4           0  0  0
    0.0000    0.0000    0.0000 C   0  0  0  0  0  4           0  0  0
   -2.1124    0.0884   -1.1443 C   0  0  0  0  0  4           0  0  0
    2.9328    1.5931    2.7491 C   0  0  0  0  0  4           0  0  0
    7.2616   -1.6013    3.6155 C   0  0  0  0  0  4           0  0  0
   -0.7049    0.0650   -1.2299 C   0  0  0  0  0  4           0  0  0
   -2.8616    0.1571   -2.3157 C   0  0  0  0  0  4           0  0  0
    7.9700   -2.4892    2.7918 C   0  0  0  0  0  4           0  0  0
   -0.1027    0.1096   -2.5130 C   0  0  0  0  0  4           0  0  0
    8.3919   -3.9185    4.6927 C   0  0  0  0  0  4           0  0  0
    7.1247   -1.8793    4.9800 C   0  0  0  0  0  4           0  0  0
    7.6891   -3.0375    5.5141 C   0  0  0  0  0  4           0  0  0
    5.9827    0.5217    3.6923 C   0  0  0  0  0  4           0  0  0
   -3.0189   -0.7557   -5.5872 C   0  0  0  0  0  4           0  0  0
   -2.9470   -4.3794   -8.9469 C   0  0  0  0  0  4           0  0  0
    0.1823    1.4837   -5.3193 C   0  0  0  0  0  4           0  0  0
    9.3987   -4.3160    1.2362 C   0  0  0  0  0  4           0  0  0
   -3.6603   -3.1064   -9.3822 C   0  0  2  0  0  4           0  0  0
   -4.4378   -2.0647   -7.2784 C   0  0  0  0  0  4           0  0  0
   -3.8584   -0.7918   -9.2398 C   0  0  0  0  0  4           0  0  0
    5.5192    1.6369    2.7829 C   0  0  0  0  0  4           0  0  0
   -4.3822   -0.9329   -6.2437 C   0  0  0  0  0  4           0  0  0
   -3.0627   -2.5437  -10.6820 C   0  0  0  0  0  4           0  0  0
   -3.0853   -1.0308  -10.5212 C   0  0  0  0  0  4           0  0  0
  1 13  1  0     0  0
  1 14  1  0     0  0
  2 15  1  0     0  0
  2 31  1  0     0  0
  3 16  1  0     0  0
  3 33  1  0     0  0
  4 17  1  0     0  0
  4 34  1  0     0  0
  5 30  2  0     0  0
  6 32  1  0     0  0
  7 13  2  0     0  0
  7 21  1  0     0  0
  8 18  1  0     0  0
  8 19  2  0     0  0
  9 18  2  0     0  0
  9 20  1  0     0  0
 10 13  1  0     0  0
 10 19  1  0     0  0
 11 22  1  0     0  0
 11 30  1  0     0  0
 12 35  1  0     0  0
 12 36  1  0     0  0
 12 37  1  0     0  0
 14 21  2  0     0  0
 14 38  1  0     0  0
 15 16  2  0     0  0
 15 24  1  0     0  0
 16 26  1  0     0  0
 17 25  1  0     0  0
 17 27  2  0     0  0
 19 23  1  0     0  0
 20 23  1  0     0  0
 20 24  2  0     0  0
 22 25  2  0     0  0
 22 28  1  0     0  0
 23 26  2  0     0  0
 27 29  1  0     0  0
 28 29  2  0     0  0
 30 38  1  0     0  0
 31 39  1  0     0  0
 32 35  1  0     0  0
 35 40  1  0     0  0
 36 39  1  0     0  0
 37 41  1  0     0  0
 40 41  1  0     0  0
M  END
> <standard_type>
pIC50

> <# Confs.>
25

> <canonical_smiles>
COC1=CC=CC(NC(CC2=CN=C(NC3=NC=NC4=CC(OCCCN5[C@H](CO)CCC5)=C(OC)C=C43)S2)=O)=C1

> <standard_relation>
=

> <Publication_ID>
Wang_2009

> <predicted_activity_value>
7.795880017344075

> <actual_activity_value>
8.301029995663981

> <Compound>
21

> <standard_units>
nM

> hash
12533943428153564438

$$$$
21_
XXILIB    08252103423D 0   0.00000     0.00000

 41 45  0     1  0            999 V2000
    3.9963    0.4445    0.7698 S   0  0  0  0  0  2           0  0  0
   -3.0942    0.3197   -4.6508 O   0  0  0  0  0  2           0  0  0
   -0.1879    0.1859   -4.8603 O   0  0  0  0  0  2           0  0  0
    7.0659   -3.7087    7.4370 O   0  0  0  0  0  2           0  0  0
    5.2382    2.1902    5.1002 O   0  0  0  0  0  2           0  0  0
   -2.2196   -3.6392   -9.1916 O   0  0  0  0  0  2           0  0  0
    1.8580    1.1559    2.0031 N   0  0  0  0  0  3           0  0  0
   -0.6593    0.0000    1.1855 N   0  0  0  0  0  3           0  0  0
   -2.7581    0.0616    0.0284 N   0  0  0  0  0  3           0  0  0
    1.4139   -0.0000    0.0000 N   0  0  0  0  0  3           0  0  0
    5.9617    0.0510    4.5479 N   0  0  0  0  0  3           0  0  0
   -2.5076   -0.0266   -8.2137 N   0  0  2  0  0  3           0  0  0
    2.2657    0.5284    0.9152 C   0  0  0  0  0  4           0  0  0
    4.1784    1.3079    2.2351 C   0  0  0  0  0  4           0  0  0
   -2.2587    0.2233   -3.5748 C   0  0  0  0  0  4           0  0  0
   -0.8715    0.1581   -3.6779 C   0  0  0  0  0  4           0  0  0
    6.6520   -2.4274    7.2063 C   0  0  0  0  0  4           0  0  0
   -1.9982    0.0239    1.1322 C   0  0  0  0  0  4           0  0  0
    0.0000    0.0000    0.0000 C   0  0  0  0  0  4           0  0  0
   -2.1124    0.0884   -1.1443 C   0  0  0  0  0  4           0  0  0
    2.9328    1.5931    2.7491 C   0  0  0  0  0  4           0  0  0
    6.0838   -0.5003    5.8372 C   0  0  0  0  0  4           0  0  0
   -0.7049    0.0650   -1.2299 C   0  0  0  0  0  4           0  0  0
   -2.8616    0.1571   -2.3157 C   0  0  0  0  0  4           0  0  0
    6.5190   -1.8296    5.9475 C   0  0  0  0  0  4           0  0  0
   -0.1027    0.1096   -2.5130 C   0  0  0  0  0  4           0  0  0
    6.3491   -1.6873    8.3528 C   0  0  0  0  0  4           0  0  0
    5.7849    0.2305    6.9924 C   0  0  0  0  0  4           0  0  0
    5.9172   -0.3656    8.2464 C   0  0  0  0  0  4           0  0  0
    5.5476    1.3409    4.2651 C   0  0  0  0  0  4           0  0  0
   -2.9060    1.4701   -5.4756 C   0  0  0  0  0  4           0  0  0
   -2.2458   -2.5358   -8.2935 C   0  0  0  0  0  4           0  0  0
    0.0513   -1.0871   -5.4554 C   0  0  0  0  0  4           0  0  0
    7.3787   -4.4668    6.2710 C   0  0  0  0  0  4           0  0  0
   -2.4642   -1.2360   -9.0562 C   0  0  2  0  0  4           0  0  0
   -3.7793    0.1870   -7.5196 C   0  0  0  0  0  4           0  0  0
   -2.2392    1.0789   -9.1430 C   0  0  0  0  0  4           0  0  0
    5.5192    1.6369    2.7829 C   0  0  0  0  0  4           0  0  0
   -3.9096    1.4239   -6.6207 C   0  0  0  0  0  4           0  0  0
   -1.3073   -0.9534  -10.0283 C   0  0  0  0  0  4           0  0  0
   -1.0906    0.5518   -9.9795 C   0  0  0  0  0  4           0  0  0
  1 13  1  0     0  0
  1 14  1  0     0  0
  2 15  1  0     0  0
  2 31  1  0     0  0
  3 16  1  0     0  0
  3 33  1  0     0  0
  4 17  1  0     0  0
  4 34  1  0     0  0
  5 30  2  0     0  0
  6 32  1  0     0  0
  7 13  2  0     0  0
  7 21  1  0     0  0
  8 18  1  0     0  0
  8 19  2  0     0  0
  9 18  2  0     0  0
  9 20  1  0     0  0
 10 13  1  0     0  0
 10 19  1  0     0  0
 11 22  1  0     0  0
 11 30  1  0     0  0
 12 35  1  0     0  0
 12 36  1  0     0  0
 12 37  1  0     0  0
 14 21  2  0     0  0
 14 38  1  0     0  0
 15 16  2  0     0  0
 15 24  1  0     0  0
 16 26  1  0     0  0
 17 25  1  0     0  0
 17 27  2  0     0  0
 19 23  1  0     0  0
 20 23  1  0     0  0
 20 24  2  0     0  0
 22 25  2  0     0  0
 22 28  1  0     0  0
 23 26  2  0     0  0
 27 29  1  0     0  0
 28 29  2  0     0  0
 30 38  1  0     0  0
 31 39  1  0     0  0
 32 35  1  0     0  0
 35 40  1  0     0  0
 36 39  1  0     0  0
 37 41  1  0     0  0
 40 41  1  0     0  0
M  END
> <standard_type>
pIC50

> <# Confs.>
25

> <canonical_smiles>
COC1=CC=CC(NC(CC2=CN=C(NC3=NC=NC4=CC(OCCCN5[C@H](CO)CCC5)=C(OC)C=C43)S2)=O)=C1

> <standard_relation>
=

> <Publication_ID>
Wang_2009

> <predicted_activity_value>
7.795880017344075

> <actual_activity_value>
8.301029995663981

> <Compound>
21

> <standard_units>
nM

> hash
12533943428153564438

$$$$
21_
XXILIB    08252103423D 0   0.00000     0.00000

 41 45  0     1  0            999 V2000
    3.9963    0.4445    0.7698 S   0  0  0  0  0  2           0  0  0
   -3.0942    0.3197   -4.6508 O   0  0  0  0  0  2           0  0  0
   -0.1879    0.1859   -4.8603 O   0  0  0  0  0  2           0  0  0
    7.0659   -3.7087    7.4370 O   0  0  0  0  0  2           0  0  0
    5.2382    2.1902    5.1002 O   0  0  0  0  0  2           0  0  0
   -3.1170   -5.4013   -9.9224 O   0  0  0  0  0  2           0  0  0
    1.8580    1.1559    2.0031 N   0  0  0  0  0  3           0  0  0
   -0.6593    0.0000    1.1855 N   0  0  0  0  0  3           0  0  0
   -2.7581    0.0616    0.0284 N   0  0  0  0  0  3           0  0  0
    1.4139   -0.0000    0.0000 N   0  0  0  0  0  3           0  0  0
    5.9617    0.0510    4.5479 N   0  0  0  0  0  3           0  0  0
   -3.5452   -1.9810   -8.4364 N   0  0  2  0  0  3           0  0  0
    2.2657    0.5284    0.9152 C   0  0  0  0  0  4           0  0  0
    4.1784    1.3079    2.2351 C   0  0  0  0  0  4           0  0  0
   -2.2587    0.2233   -3.5748 C   0  0  0  0  0  4           0  0  0
   -0.8715    0.1581   -3.6779 C   0  0  0  0  0  4           0  0  0
    6.6520   -2.4274    7.2063 C   0  0  0  0  0  4           0  0  0
   -1.9982    0.0239    1.1322 C   0  0  0  0  0  4           0  0  0
    0.0000    0.0000    0.0000 C   0  0  0  0  0  4           0  0  0
   -2.1124    0.0884   -1.1443 C   0  0  0  0  0  4           0  0  0
    2.9328    1.5931    2.7491 C   0  0  0  0  0  4           0  0  0
    6.0838   -0.5003    5.8372 C   0  0  0  0  0  4           0  0  0
   -0.7049    0.0650   -1.2299 C   0  0  0  0  0  4           0  0  0
   -2.8616    0.1571   -2.3157 C   0  0  0  0  0  4           0  0  0
    6.5190   -1.8296    5.9475 C   0  0  0  0  0  4           0  0  0
   -0.1027    0.1096   -2.5130 C   0  0  0  0  0  4           0  0  0
    6.3491   -1.6873    8.3528 C   0  0  0  0  0  4           0  0  0
    5.7849    0.2305    6.9924 C   0  0  0  0  0  4           0  0  0
    5.9172   -0.3656    8.2464 C   0  0  0  0  0  4           0  0  0
    5.5476    1.3409    4.2651 C   0  0  0  0  0  4           0  0  0
   -3.0189   -0.7557   -5.5872 C   0  0  0  0  0  4           0  0  0
   -2.9470   -4.3794   -8.9469 C   0  0  0  0  0  4           0  0  0
    0.1823    1.4837   -5.3193 C   0  0  0  0  0  4           0  0  0
    7.3787   -4.4668    6.2710 C   0  0  0  0  0  4           0  0  0
   -3.6603   -3.1064   -9.3822 C   0  0  2  0  0  4           0  0  0
   -4.4378   -2.0647   -7.2784 C   0  0  0  0  0  4           0  0  0
   -3.8584   -0.7918   -9.2398 C   0  0  0  0  0  4           0  0  0
    5.5192    1.6369    2.7829 C   0  0  0  0  0  4           0  0  0
   -4.3822   -0.9329   -6.2437 C   0  0  0  0  0  4           0  0  0
   -3.0627   -2.5437  -10.6820 C   0  0  0  0  0  4           0  0  0
   -3.0853   -1.0308  -10.5212 C   0  0  0  0  0  4           0  0  0
  1 13  1  0     0  0
  1 14  1  0     0  0
  2 15  1  0     0  0
  2 31  1  0     0  0
  3 16  1  0     0  0
  3 33  1  0     0  0
  4 17  1  0     0  0
  4 34  1  0     0  0
  5 30  2  0     0  0
  6 32  1  0     0  0
  7 13  2  0     0  0
  7 21  1  0     0  0
  8 18  1  0     0  0
  8 19  2  0     0  0
  9 18  2  0     0  0
  9 20  1  0     0  0
 10 13  1  0     0  0
 10 19  1  0     0  0
 11 22  1  0     0  0
 11 30  1  0     0  0
 12 35  1  0     0  0
 12 36  1  0     0  0
 12 37  1  0     0  0
 14 21  2  0     0  0
 14 38  1  0     0  0
 15 16  2  0     0  0
 15 24  1  0     0  0
 16 26  1  0     0  0
 17 25  1  0     0  0
 17 27  2  0     0  0
 19 23  1  0     0  0
 20 23  1  0     0  0
 20 24  2  0     0  0
 22 25  2  0     0  0
 22 28  1  0     0  0
 23 26  2  0     0  0
 27 29  1  0     0  0
 28 29  2  0     0  0
 30 38  1  0     0  0
 31 39  1  0     0  0
 32 35  1  0     0  0
 35 40  1  0     0  0
 36 39  1  0     0  0
 37 41  1  0     0  0
 40 41  1  0     0  0
M  END
> <standard_type>
pIC50

> <# Confs.>
25

> <canonical_smiles>
COC1=CC=CC(NC(CC2=CN=C(NC3=NC=NC4=CC(OCCCN5[C@H](CO)CCC5)=C(OC)C=C43)S2)=O)=C1

> <standard_relation>
=

> <Publication_ID>
Wang_2009

> <predicted_activity_value>
7.795880017344075

> <actual_activity_value>
8.301029995663981

> <Compound>
21

> <standard_units>
nM

> hash
12533943428153564438

$$$$
21_
XXILIB    08252103423D 0   0.00000     0.00000

 41 45  0     1  0            999 V2000
    3.9963    0.4445    0.7698 S   0  0  0  0  0  2           0  0  0
   -3.0942    0.3197   -4.6508 O   0  0  0  0  0  2           0  0  0
   -0.1879    0.1859   -4.8603 O   0  0  0  0  0  2           0  0  0
    9.1318    4.5543   -2.7909 O   0  0  0  0  0  2           0  0  0
    5.7133    4.0275    2.8335 O   0  0  0  0  0  2           0  0  0
   -2.5516    6.6266   -9.1728 O   0  0  0  0  0  2           0  0  0
    1.8580    1.1559    2.0031 N   0  0  0  0  0  3           0  0  0
   -0.6593    0.0000    1.1855 N   0  0  0  0  0  3           0  0  0
   -2.7581    0.0616    0.0284 N   0  0  0  0  0  3           0  0  0
    1.4139   -0.0000   -0.0000 N   0  0  0  0  0  3           0  0  0
    6.6688    2.8722    1.0569 N   0  0  0  0  0  3           0  0  0
   -3.7387    4.3474   -6.4367 N   0  0  2  0  0  3           0  0  0
    2.2657    0.5284    0.9152 C   0  0  0  0  0  4           0  0  0
    4.1784    1.3079    2.2351 C   0  0  0  0  0  4           0  0  0
   -2.2587    0.2233   -3.5748 C   0  0  0  0  0  4           0  0  0
   -0.8715    0.1581   -3.6779 C   0  0  0  0  0  4           0  0  0
    8.4488    4.7065   -1.6177 C   0  0  0  0  0  4           0  0  0
   -1.9982    0.0239    1.1322 C   0  0  0  0  0  4           0  0  0
    0.0000    0.0000    0.0000 C   0  0  0  0  0  4           0  0  0
   -2.1124    0.0884   -1.1443 C   0  0  0  0  0  4           0  0  0
    2.9328    1.5931    2.7491 C   0  0  0  0  0  4           0  0  0
    7.2073    3.9516    0.3317 C   0  0  0  0  0  4           0  0  0
   -0.7049    0.0650   -1.2299 C   0  0  0  0  0  4           0  0  0
   -2.8616    0.1571   -2.3157 C   0  0  0  0  0  4           0  0  0
    7.8896    3.6697   -0.8615 C   0  0  0  0  0  4           0  0  0
   -0.1027    0.1096   -2.5130 C   0  0  0  0  0  4           0  0  0
    8.3197    6.0258   -1.1741 C   0  0  0  0  0  4           0  0  0
    7.0837    5.2766    0.7644 C   0  0  0  0  0  4           0  0  0
    7.6414    6.3093    0.0108 C   0  0  0  0  0  4           0  0  0
    5.9706    2.9767    2.2472 C   0  0  0  0  0  4           0  0  0
   -2.9060    1.4701   -5.4756 C   0  0  0  0  0  4           0  0  0
   -2.4913    5.5026   -8.3023 C   0  0  0  0  0  4           0  0  0
    0.0513   -1.0871   -5.4554 C   0  0  0  0  0  4           0  0  0
    9.2637    3.2109   -3.2488 C   0  0  0  0  0  4           0  0  0
   -3.7048    5.4781   -7.3826 C   0  0  2  0  0  4           0  0  0
   -4.1770    3.0778   -7.0205 C   0  0  0  0  0  4           0  0  0
   -4.6697    4.7759   -5.3844 C   0  0  0  0  0  4           0  0  0
    5.5192    1.6369    2.7829 C   0  0  0  0  0  4           0  0  0
   -4.2411    1.8485   -6.1041 C   0  0  0  0  0  4           0  0  0
   -3.7406    6.7120   -6.4664 C   0  0  0  0  0  4           0  0  0
   -4.2570    6.2110   -5.1257 C   0  0  0  0  0  4           0  0  0
  1 13  1  0     0  0
  1 14  1  0     0  0
  2 15  1  0     0  0
  2 31  1  0     0  0
  3 16  1  0     0  0
  3 33  1  0     0  0
  4 17  1  0     0  0
  4 34  1  0     0  0
  5 30  2  0     0  0
  6 32  1  0     0  0
  7 13  2  0     0  0
  7 21  1  0     0  0
  8 18  1  0     0  0
  8 19  2  0     0  0
  9 18  2  0     0  0
  9 20  1  0     0  0
 10 13  1  0     0  0
 10 19  1  0     0  0
 11 22  1  0     0  0
 11 30  1  0     0  0
 12 35  1  0     0  0
 12 36  1  0     0  0
 12 37  1  0     0  0
 14 21  2  0     0  0
 14 38  1  0     0  0
 15 16  2  0     0  0
 15 24  1  0     0  0
 16 26  1  0     0  0
 17 25  1  0     0  0
 17 27  2  0     0  0
 19 23  1  0     0  0
 20 23  1  0     0  0
 20 24  2  0     0  0
 22 25  2  0     0  0
 22 28  1  0     0  0
 23 26  2  0     0  0
 27 29  1  0     0  0
 28 29  2  0     0  0
 30 38  1  0     0  0
 31 39  1  0     0  0
 32 35  1  0     0  0
 35 40  1  0     0  0
 36 39  1  0     0  0
 37 41  1  0     0  0
 40 41  1  0     0  0
M  END
> <standard_type>
pIC50

> <# Confs.>
25

> <canonical_smiles>
COC1=CC=CC(NC(CC2=CN=C(NC3=NC=NC4=CC(OCCCN5[C@H](CO)CCC5)=C(OC)C=C43)S2)=O)=C1

> <standard_relation>
=

> <Publication_ID>
Wang_2009

> <predicted_activity_value>
7.795880017344075

> <actual_activity_value>
8.301029995663981

> <Compound>
21

> <standard_units>
nM

> hash
12533943428153564438

$$$$
21_
XXILIB    08252103423D 0   0.00000     0.00000

 41 45  0     1  0            999 V2000
    3.9963    0.4445    0.7698 S   0  0  0  0  0  2           0  0  0
   -3.0942    0.3197   -4.6508 O   0  0  0  0  0  2           0  0  0
   -0.1879    0.1859   -4.8603 O   0  0  0  0  0  2           0  0  0
    9.1318    4.5543   -2.7909 O   0  0  0  0  0  2           0  0  0
    5.7133    4.0275    2.8335 O   0  0  0  0  0  2           0  0  0
   -3.1170   -5.4013   -9.9224 O   0  0  0  0  0  2           0  0  0
    1.8580    1.1559    2.0031 N   0  0  0  0  0  3           0  0  0
   -0.6593    0.0000    1.1855 N   0  0  0  0  0  3           0  0  0
   -2.7581    0.0616    0.0284 N   0  0  0  0  0  3           0  0  0
    1.4139   -0.0000   -0.0000 N   0  0  0  0  0  3           0  0  0
    6.6688    2.8722    1.0569 N   0  0  0  0  0  3           0  0  0
   -3.5452   -1.9810   -8.4364 N   0  0  2  0  0  3           0  0  0
    2.2657    0.5284    0.9152 C   0  0  0  0  0  4           0  0  0
    4.1784    1.3079    2.2351 C   0  0  0  0  0  4           0  0  0
   -2.2587    0.2233   -3.5748 C   0  0  0  0  0  4           0  0  0
   -0.8715    0.1581   -3.6779 C   0  0  0  0  0  4           0  0  0
    8.4488    4.7065   -1.6177 C   0  0  0  0  0  4           0  0  0
   -1.9982    0.0239    1.1322 C   0  0  0  0  0  4           0  0  0
    0.0000    0.0000    0.0000 C   0  0  0  0  0  4           0  0  0
   -2.1124    0.0884   -1.1443 C   0  0  0  0  0  4           0  0  0
    2.9328    1.5931    2.7491 C   0  0  0  0  0  4           0  0  0
    7.2073    3.9516    0.3317 C   0  0  0  0  0  4           0  0  0
   -0.7049    0.0650   -1.2299 C   0  0  0  0  0  4           0  0  0
   -2.8616    0.1571   -2.3157 C   0  0  0  0  0  4           0  0  0
    7.8896    3.6697   -0.8615 C   0  0  0  0  0  4           0  0  0
   -0.1027    0.1096   -2.5130 C   0  0  0  0  0  4           0  0  0
    8.3197    6.0258   -1.1741 C   0  0  0  0  0  4           0  0  0
    7.0837    5.2766    0.7644 C   0  0  0  0  0  4           0  0  0
    7.6414    6.3093    0.0108 C   0  0  0  0  0  4           0  0  0
    5.9706    2.9767    2.2472 C   0  0  0  0  0  4           0  0  0
   -3.0189   -0.7557   -5.5872 C   0  0  0  0  0  4           0  0  0
   -2.9470   -4.3794   -8.9469 C   0  0  0  0  0  4           0  0  0
    0.1823    1.4837   -5.3193 C   0  0  0  0  0  4           0  0  0
    9.2637    3.2109   -3.2488 C   0  0  0  0  0  4           0  0  0
   -3.6603   -3.1064   -9.3822 C   0  0  2  0  0  4           0  0  0
   -4.4378   -2.0647   -7.2784 C   0  0  0  0  0  4           0  0  0
   -3.8584   -0.7918   -9.2398 C   0  0  0  0  0  4           0  0  0
    5.5192    1.6369    2.7829 C   0  0  0  0  0  4           0  0  0
   -4.3822   -0.9329   -6.2437 C   0  0  0  0  0  4           0  0  0
   -3.0627   -2.5437  -10.6820 C   0  0  0  0  0  4           0  0  0
   -3.0853   -1.0308  -10.5212 C   0  0  0  0  0  4           0  0  0
  1 13  1  0     0  0
  1 14  1  0     0  0
  2 15  1  0     0  0
  2 31  1  0     0  0
  3 16  1  0     0  0
  3 33  1  0     0  0
  4 17  1  0     0  0
  4 34  1  0     0  0
  5 30  2  0     0  0
  6 32  1  0     0  0
  7 13  2  0     0  0
  7 21  1  0     0  0
  8 18  1  0     0  0
  8 19  2  0     0  0
  9 18  2  0     0  0
  9 20  1  0     0  0
 10 13  1  0     0  0
 10 19  1  0     0  0
 11 22  1  0     0  0
 11 30  1  0     0  0
 12 35  1  0     0  0
 12 36  1  0     0  0
 12 37  1  0     0  0
 14 21  2  0     0  0
 14 38  1  0     0  0
 15 16  2  0     0  0
 15 24  1  0     0  0
 16 26  1  0     0  0
 17 25  1  0     0  0
 17 27  2  0     0  0
 19 23  1  0     0  0
 20 23  1  0     0  0
 20 24  2  0     0  0
 22 25  2  0     0  0
 22 28  1  0     0  0
 23 26  2  0     0  0
 27 29  1  0     0  0
 28 29  2  0     0  0
 30 38  1  0     0  0
 31 39  1  0     0  0
 32 35  1  0     0  0
 35 40  1  0     0  0
 36 39  1  0     0  0
 37 41  1  0     0  0
 40 41  1  0     0  0
M  END
> <standard_type>
pIC50

> <# Confs.>
25

> <canonical_smiles>
COC1=CC=CC(NC(CC2=CN=C(NC3=NC=NC4=CC(OCCCN5[C@H](CO)CCC5)=C(OC)C=C43)S2)=O)=C1

> <standard_relation>
=

> <Publication_ID>
Wang_2009

> <predicted_activity_value>
7.795880017344075

> <actual_activity_value>
8.301029995663981

> <Compound>
21

> <standard_units>
nM

> hash
12533943428153564438

$$$$
21_
XXILIB    08252103423D 0   0.00000     0.00000

 41 45  0     1  0            999 V2000
    3.9963    0.4445    0.7698 S   0  0  0  0  0  2           0  0  0
   -3.0942    0.3197   -4.6508 O   0  0  0  0  0  2           0  0  0
   -0.1879    0.1859   -4.8603 O   0  0  0  0  0  2           0  0  0
    9.1318    4.5543   -2.7909 O   0  0  0  0  0  2           0  0  0
    5.7133    4.0275    2.8335 O   0  0  0  0  0  2           0  0  0
   -2.2196   -3.6392   -9.1916 O   0  0  0  0  0  2           0  0  0
    1.8580    1.1559    2.0031 N   0  0  0  0  0  3           0  0  0
   -0.6593    0.0000    1.1855 N   0  0  0  0  0  3           0  0  0
   -2.7581    0.0616    0.0284 N   0  0  0  0  0  3           0  0  0
    1.4139   -0.0000   -0.0000 N   0  0  0  0  0  3           0  0  0
    6.6688    2.8722    1.0569 N   0  0  0  0  0  3           0  0  0
   -2.5076   -0.0266   -8.2137 N   0  0  2  0  0  3           0  0  0
    2.2657    0.5284    0.9152 C   0  0  0  0  0  4           0  0  0
    4.1784    1.3079    2.2351 C   0  0  0  0  0  4           0  0  0
   -2.2587    0.2233   -3.5748 C   0  0  0  0  0  4           0  0  0
   -0.8715    0.1581   -3.6779 C   0  0  0  0  0  4           0  0  0
    8.4488    4.7065   -1.6177 C   0  0  0  0  0  4           0  0  0
   -1.9982    0.0239    1.1322 C   0  0  0  0  0  4           0  0  0
    0.0000    0.0000    0.0000 C   0  0  0  0  0  4           0  0  0
   -2.1124    0.0884   -1.1443 C   0  0  0  0  0  4           0  0  0
    2.9328    1.5931    2.7491 C   0  0  0  0  0  4           0  0  0
    7.2073    3.9516    0.3317 C   0  0  0  0  0  4           0  0  0
   -0.7049    0.0650   -1.2299 C   0  0  0  0  0  4           0  0  0
   -2.8616    0.1571   -2.3157 C   0  0  0  0  0  4           0  0  0
    7.8896    3.6697   -0.8615 C   0  0  0  0  0  4           0  0  0
   -0.1027    0.1096   -2.5130 C   0  0  0  0  0  4           0  0  0
    8.3197    6.0258   -1.1741 C   0  0  0  0  0  4           0  0  0
    7.0837    5.2766    0.7644 C   0  0  0  0  0  4           0  0  0
    7.6414    6.3093    0.0108 C   0  0  0  0  0  4           0  0  0
    5.9706    2.9767    2.2472 C   0  0  0  0  0  4           0  0  0
   -2.9060    1.4701   -5.4756 C   0  0  0  0  0  4           0  0  0
   -2.2458   -2.5358   -8.2935 C   0  0  0  0  0  4           0  0  0
    0.0513   -1.0871   -5.4554 C   0  0  0  0  0  4           0  0  0
    9.2637    3.2109   -3.2488 C   0  0  0  0  0  4           0  0  0
   -2.4642   -1.2360   -9.0562 C   0  0  2  0  0  4           0  0  0
   -3.7793    0.1870   -7.5196 C   0  0  0  0  0  4           0  0  0
   -2.2392    1.0789   -9.1430 C   0  0  0  0  0  4           0  0  0
    5.5192    1.6369    2.7829 C   0  0  0  0  0  4           0  0  0
   -3.9096    1.4239   -6.6207 C   0  0  0  0  0  4           0  0  0
   -1.3073   -0.9534  -10.0283 C   0  0  0  0  0  4           0  0  0
   -1.0906    0.5518   -9.9795 C   0  0  0  0  0  4           0  0  0
  1 13  1  0     0  0
  1 14  1  0     0  0
  2 15  1  0     0  0
  2 31  1  0     0  0
  3 16  1  0     0  0
  3 33  1  0     0  0
  4 17  1  0     0  0
  4 34  1  0     0  0
  5 30  2  0     0  0
  6 32  1  0     0  0
  7 13  2  0     0  0
  7 21  1  0     0  0
  8 18  1  0     0  0
  8 19  2  0     0  0
  9 18  2  0     0  0
  9 20  1  0     0  0
 10 13  1  0     0  0
 10 19  1  0     0  0
 11 22  1  0     0  0
 11 30  1  0     0  0
 12 35  1  0     0  0
 12 36  1  0     0  0
 12 37  1  0     0  0
 14 21  2  0     0  0
 14 38  1  0     0  0
 15 16  2  0     0  0
 15 24  1  0     0  0
 16 26  1  0     0  0
 17 25  1  0     0  0
 17 27  2  0     0  0
 19 23  1  0     0  0
 20 23  1  0     0  0
 20 24  2  0     0  0
 22 25  2  0     0  0
 22 28  1  0     0  0
 23 26  2  0     0  0
 27 29  1  0     0  0
 28 29  2  0     0  0
 30 38  1  0     0  0
 31 39  1  0     0  0
 32 35  1  0     0  0
 35 40  1  0     0  0
 36 39  1  0     0  0
 37 41  1  0     0  0
 40 41  1  0     0  0
M  END
> <standard_type>
pIC50

> <# Confs.>
25

> <canonical_smiles>
COC1=CC=CC(NC(CC2=CN=C(NC3=NC=NC4=CC(OCCCN5[C@H](CO)CCC5)=C(OC)C=C43)S2)=O)=C1

> <standard_relation>
=

> <Publication_ID>
Wang_2009

> <predicted_activity_value>
7.795880017344075

> <actual_activity_value>
8.301029995663981

> <Compound>
21

> <standard_units>
nM

> hash
12533943428153564438

$$$$
21_
XXILIB    08252103423D 0   0.00000     0.00000

 41 45  0     1  0            999 V2000
    3.9963    0.4445    0.7698 S   0  0  0  0  0  2           0  0  0
   -3.0942    0.3197   -4.6508 O   0  0  0  0  0  2           0  0  0
   -0.1879    0.1859   -4.8603 O   0  0  0  0  0  2           0  0  0
    6.9295    8.3200    0.3380 O   0  0  0  0  0  2           0  0  0
    5.2323    3.3926    4.3924 O   0  0  0  0  0  2           0  0  0
   -2.2196   -3.6392   -9.1916 O   0  0  0  0  0  2           0  0  0
    1.8580    1.1559    2.0031 N   0  0  0  0  0  3           0  0  0
   -0.6593    0.0000    1.1855 N   0  0  0  0  0  3           0  0  0
   -2.7581    0.0616    0.0284 N   0  0  0  0  0  3           0  0  0
    1.4139    0.0000   -0.0000 N   0  0  0  0  0  3           0  0  0
    5.9180    3.9557    2.2437 N   0  0  0  0  0  3           0  0  0
   -2.5076   -0.0266   -8.2137 N   0  0  2  0  0  3           0  0  0
    2.2657    0.5284    0.9152 C   0  0  0  0  0  4           0  0  0
    4.1784    1.3079    2.2351 C   0  0  0  0  0  4           0  0  0
   -2.2587    0.2233   -3.5748 C   0  0  0  0  0  4           0  0  0
   -0.8715    0.1581   -3.6779 C   0  0  0  0  0  4           0  0  0
    6.5509    7.4908    1.3555 C   0  0  0  0  0  4           0  0  0
   -1.9982    0.0239    1.1322 C   0  0  0  0  0  4           0  0  0
    0.0000    0.0000    0.0000 C   0  0  0  0  0  4           0  0  0
   -2.1124    0.0884   -1.1443 C   0  0  0  0  0  4           0  0  0
    2.9328    1.5931    2.7491 C   0  0  0  0  0  4           0  0  0
    6.0248    5.3520    2.3851 C   0  0  0  0  0  4           0  0  0
   -0.7049    0.0650   -1.2299 C   0  0  0  0  0  4           0  0  0
   -2.8616    0.1571   -2.3157 C   0  0  0  0  0  4           0  0  0
    6.4238    6.0996    1.2668 C   0  0  0  0  0  4           0  0  0
   -0.1027    0.1096   -2.5130 C   0  0  0  0  0  4           0  0  0
    6.2748    8.1289    2.5682 C   0  0  0  0  0  4           0  0  0
    5.7500    6.0027    3.5930 C   0  0  0  0  0  4           0  0  0
    5.8771    7.3888    3.6811 C   0  0  0  0  0  4           0  0  0
    5.5391    3.0768    3.2433 C   0  0  0  0  0  4           0  0  0
   -2.9060    1.4701   -5.4756 C   0  0  0  0  0  4           0  0  0
   -2.2458   -2.5358   -8.2935 C   0  0  0  0  0  4           0  0  0
    0.0513   -1.0871   -5.4554 C   0  0  0  0  0  4           0  0  0
    7.2095    7.6742   -0.9015 C   0  0  0  0  0  4           0  0  0
   -2.4642   -1.2360   -9.0562 C   0  0  2  0  0  4           0  0  0
   -3.7793    0.1870   -7.5196 C   0  0  0  0  0  4           0  0  0
   -2.2392    1.0789   -9.1430 C   0  0  0  0  0  4           0  0  0
    5.5192    1.6369    2.7829 C   0  0  0  0  0  4           0  0  0
   -3.9096    1.4239   -6.6207 C   0  0  0  0  0  4           0  0  0
   -1.3073   -0.9534  -10.0283 C   0  0  0  0  0  4           0  0  0
   -1.0906    0.5518   -9.9795 C   0  0  0  0  0  4           0  0  0
  1 13  1  0     0  0
  1 14  1  0     0  0
  2 15  1  0     0  0
  2 31  1  0     0  0
  3 16  1  0     0  0
  3 33  1  0     0  0
  4 17  1  0     0  0
  4 34  1  0     0  0
  5 30  2  0     0  0
  6 32  1  0     0  0
  7 13  2  0     0  0
  7 21  1  0     0  0
  8 18  1  0     0  0
  8 19  2  0     0  0
  9 18  2  0     0  0
  9 20  1  0     0  0
 10 13  1  0     0  0
 10 19  1  0     0  0
 11 22  1  0     0  0
 11 30  1  0     0  0
 12 35  1  0     0  0
 12 36  1  0     0  0
 12 37  1  0     0  0
 14 21  2  0     0  0
 14 38  1  0     0  0
 15 16  2  0     0  0
 15 24  1  0     0  0
 16 26  1  0     0  0
 17 25  1  0     0  0
 17 27  2  0     0  0
 19 23  1  0     0  0
 20 23  1  0     0  0
 20 24  2  0     0  0
 22 25  2  0     0  0
 22 28  1  0     0  0
 23 26  2  0     0  0
 27 29  1  0     0  0
 28 29  2  0     0  0
 30 38  1  0     0  0
 31 39  1  0     0  0
 32 35  1  0     0  0
 35 40  1  0     0  0
 36 39  1  0     0  0
 37 41  1  0     0  0
 40 41  1  0     0  0
M  END
> <standard_type>
pIC50

> <# Confs.>
25

> <canonical_smiles>
COC1=CC=CC(NC(CC2=CN=C(NC3=NC=NC4=CC(OCCCN5[C@H](CO)CCC5)=C(OC)C=C43)S2)=O)=C1

> <standard_relation>
=

> <Publication_ID>
Wang_2009

> <predicted_activity_value>
7.795880017344075

> <actual_activity_value>
8.301029995663981

> <Compound>
21

> <standard_units>
nM

> hash
12533943428153564438

$$$$
21_
XXILIB    08252103423D 0   0.00000     0.00000

 41 45  0     1  0            999 V2000
    3.9963    0.4445    0.7698 S   0  0  0  0  0  2           0  0  0
   -3.0942    0.3197   -4.6508 O   0  0  0  0  0  2           0  0  0
   -0.1879    0.1859   -4.8603 O   0  0  0  0  0  2           0  0  0
    9.2458   -4.5854    2.6275 O   0  0  0  0  0  2           0  0  0
    5.7305    0.5226    4.8968 O   0  0  0  0  0  2           0  0  0
   -5.3171   -3.1108   -9.1615 O   0  0  0  0  0  2           0  0  0
    1.8580    1.1559    2.0031 N   0  0  0  0  0  3           0  0  0
   -0.6593    0.0000    1.1855 N   0  0  0  0  0  3           0  0  0
   -2.7581    0.0616    0.0284 N   0  0  0  0  0  3           0  0  0
    1.4139   -0.0000   -0.0000 N   0  0  0  0  0  3           0  0  0
    6.7070   -0.4504    3.0248 N   0  0  0  0  0  3           0  0  0
   -4.0886    0.2856   -8.1391 N   0  0  2  0  0  3           0  0  0
    2.2657    0.5284    0.9152 C   0  0  0  0  0  4           0  0  0
    4.1784    1.3079    2.2351 C   0  0  0  0  0  4           0  0  0
   -2.2587    0.2233   -3.5748 C   0  0  0  0  0  4           0  0  0
   -0.8715    0.1581   -3.6779 C   0  0  0  0  0  4           0  0  0
    8.5367   -3.6514    3.3283 C   0  0  0  0  0  4           0  0  0
   -1.9982    0.0239    1.1322 C   0  0  0  0  0  4           0  0  0
    0.0000   -0.0000    0.0000 C   0  0  0  0  0  4           0  0  0
   -2.1124    0.0884   -1.1443 C   0  0  0  0  0  4           0  0  0
    2.9328    1.5931    2.7491 C   0  0  0  0  0  4           0  0  0
    7.2616   -1.6013    3.6155 C   0  0  0  0  0  4           0  0  0
   -0.7049    0.0650   -1.2299 C   0  0  0  0  0  4           0  0  0
   -2.8616    0.1571   -2.3157 C   0  0  0  0  0  4           0  0  0
    7.9700   -2.4892    2.7918 C   0  0  0  0  0  4           0  0  0
   -0.1027    0.1096   -2.5130 C   0  0  0  0  0  4           0  0  0
    8.3919   -3.9185    4.6927 C   0  0  0  0  0  4           0  0  0
    7.1247   -1.8793    4.9800 C   0  0  0  0  0  4           0  0  0
    7.6891   -3.0375    5.5141 C   0  0  0  0  0  4           0  0  0
    5.9827    0.5217    3.6923 C   0  0  0  0  0  4           0  0  0
   -2.9060    1.4701   -5.4756 C   0  0  0  0  0  4           0  0  0
   -4.6529   -2.1673   -8.3289 C   0  0  0  0  0  4           0  0  0
    0.0513   -1.0871   -5.4554 C   0  0  0  0  0  4           0  0  0
    9.3987   -4.3160    1.2362 C   0  0  0  0  0  4           0  0  0
   -4.7482   -0.7708   -8.9286 C   0  0  2  0  0  4           0  0  0
   -4.8556    0.7492   -6.9810 C   0  0  0  0  0  4           0  0  0
   -3.8854    1.3845   -9.0923 C   0  0  0  0  0  4           0  0  0
    5.5192    1.6369    2.7829 C   0  0  0  0  0  4           0  0  0
   -4.2411    1.8485   -6.1041 C   0  0  0  0  0  4           0  0  0
   -4.0395   -0.6945  -10.2907 C   0  0  0  0  0  4           0  0  0
   -3.3761    0.6742  -10.3305 C   0  0  0  0  0  4           0  0  0
  1 13  1  0     0  0
  1 14  1  0     0  0
  2 15  1  0     0  0
  2 31  1  0     0  0
  3 16  1  0     0  0
  3 33  1  0     0  0
  4 17  1  0     0  0
  4 34  1  0     0  0
  5 30  2  0     0  0
  6 32  1  0     0  0
  7 13  2  0     0  0
  7 21  1  0     0  0
  8 18  1  0     0  0
  8 19  2  0     0  0
  9 18  2  0     0  0
  9 20  1  0     0  0
 10 13  1  0     0  0
 10 19  1  0     0  0
 11 22  1  0     0  0
 11 30  1  0     0  0
 12 35  1  0     0  0
 12 36  1  0     0  0
 12 37  1  0     0  0
 14 21  2  0     0  0
 14 38  1  0     0  0
 15 16  2  0     0  0
 15 24  1  0     0  0
 16 26  1  0     0  0
 17 25  1  0     0  0
 17 27  2  0     0  0
 19 23  1  0     0  0
 20 23  1  0     0  0
 20 24  2  0     0  0
 22 25  2  0     0  0
 22 28  1  0     0  0
 23 26  2  0     0  0
 27 29  1  0     0  0
 28 29  2  0     0  0
 30 38  1  0     0  0
 31 39  1  0     0  0
 32 35  1  0     0  0
 35 40  1  0     0  0
 36 39  1  0     0  0
 37 41  1  0     0  0
 40 41  1  0     0  0
M  END
> <standard_type>
pIC50

> <# Confs.>
25

> <canonical_smiles>
COC1=CC=CC(NC(CC2=CN=C(NC3=NC=NC4=CC(OCCCN5[C@H](CO)CCC5)=C(OC)C=C43)S2)=O)=C1

> <standard_relation>
=

> <Publication_ID>
Wang_2009

> <predicted_activity_value>
7.795880017344075

> <actual_activity_value>
8.301029995663981

> <Compound>
21

> <standard_units>
nM

> hash
12533943428153564438

$$$$
21_
XXILIB    08252103423D 0   0.00000     0.00000

 41 45  0     1  0            999 V2000
    3.9963    0.4445    0.7698 S   0  0  0  0  0  2           0  0  0
   -3.0942    0.3197   -4.6508 O   0  0  0  0  0  2           0  0  0
   -0.1879    0.1859   -4.8603 O   0  0  0  0  0  2           0  0  0
    6.9295    8.3200    0.3380 O   0  0  0  0  0  2           0  0  0
    5.2323    3.3926    4.3924 O   0  0  0  0  0  2           0  0  0
   -3.1170   -5.4013   -9.9224 O   0  0  0  0  0  2           0  0  0
    1.8580    1.1559    2.0031 N   0  0  0  0  0  3           0  0  0
   -0.6593    0.0000    1.1855 N   0  0  0  0  0  3           0  0  0
   -2.7581    0.0616    0.0284 N   0  0  0  0  0  3           0  0  0
    1.4139    0.0000   -0.0000 N   0  0  0  0  0  3           0  0  0
    5.9180    3.9557    2.2437 N   0  0  0  0  0  3           0  0  0
   -3.5452   -1.9810   -8.4364 N   0  0  2  0  0  3           0  0  0
    2.2657    0.5284    0.9152 C   0  0  0  0  0  4           0  0  0
    4.1784    1.3079    2.2351 C   0  0  0  0  0  4           0  0  0
   -2.2587    0.2233   -3.5748 C   0  0  0  0  0  4           0  0  0
   -0.8715    0.1581   -3.6779 C   0  0  0  0  0  4           0  0  0
    6.5509    7.4908    1.3555 C   0  0  0  0  0  4           0  0  0
   -1.9982    0.0239    1.1322 C   0  0  0  0  0  4           0  0  0
    0.0000    0.0000    0.0000 C   0  0  0  0  0  4           0  0  0
   -2.1124    0.0884   -1.1443 C   0  0  0  0  0  4           0  0  0
    2.9328    1.5931    2.7491 C   0  0  0  0  0  4           0  0  0
    6.0248    5.3520    2.3851 C   0  0  0  0  0  4           0  0  0
   -0.7049    0.0650   -1.2299 C   0  0  0  0  0  4           0  0  0
   -2.8616    0.1571   -2.3157 C   0  0  0  0  0  4           0  0  0
    6.4238    6.0996    1.2668 C   0  0  0  0  0  4           0  0  0
   -0.1027    0.1096   -2.5130 C   0  0  0  0  0  4           0  0  0
    6.2748    8.1289    2.5682 C   0  0  0  0  0  4           0  0  0
    5.7500    6.0027    3.5930 C   0  0  0  0  0  4           0  0  0
    5.8771    7.3888    3.6811 C   0  0  0  0  0  4           0  0  0
    5.5391    3.0768    3.2433 C   0  0  0  0  0  4           0  0  0
   -3.0189   -0.7557   -5.5872 C   0  0  0  0  0  4           0  0  0
   -2.9470   -4.3794   -8.9469 C   0  0  0  0  0  4           0  0  0
    0.1823    1.4837   -5.3193 C   0  0  0  0  0  4           0  0  0
    7.2095    7.6742   -0.9015 C   0  0  0  0  0  4           0  0  0
   -3.6603   -3.1064   -9.3822 C   0  0  2  0  0  4           0  0  0
   -4.4378   -2.0647   -7.2784 C   0  0  0  0  0  4           0  0  0
   -3.8584   -0.7918   -9.2398 C   0  0  0  0  0  4           0  0  0
    5.5192    1.6369    2.7829 C   0  0  0  0  0  4           0  0  0
   -4.3822   -0.9329   -6.2437 C   0  0  0  0  0  4           0  0  0
   -3.0627   -2.5437  -10.6820 C   0  0  0  0  0  4           0  0  0
   -3.0853   -1.0308  -10.5212 C   0  0  0  0  0  4           0  0  0
  1 13  1  0     0  0
  1 14  1  0     0  0
  2 15  1  0     0  0
  2 31  1  0     0  0
  3 16  1  0     0  0
  3 33  1  0     0  0
  4 17  1  0     0  0
  4 34  1  0     0  0
  5 30  2  0     0  0
  6 32  1  0     0  0
  7 13  2  0     0  0
  7 21  1  0     0  0
  8 18  1  0     0  0
  8 19  2  0     0  0
  9 18  2  0     0  0
  9 20  1  0     0  0
 10 13  1  0     0  0
 10 19  1  0     0  0
 11 22  1  0     0  0
 11 30  1  0     0  0
 12 35  1  0     0  0
 12 36  1  0     0  0
 12 37  1  0     0  0
 14 21  2  0     0  0
 14 38  1  0     0  0
 15 16  2  0     0  0
 15 24  1  0     0  0
 16 26  1  0     0  0
 17 25  1  0     0  0
 17 27  2  0     0  0
 19 23  1  0     0  0
 20 23  1  0     0  0
 20 24  2  0     0  0
 22 25  2  0     0  0
 22 28  1  0     0  0
 23 26  2  0     0  0
 27 29  1  0     0  0
 28 29  2  0     0  0
 30 38  1  0     0  0
 31 39  1  0     0  0
 32 35  1  0     0  0
 35 40  1  0     0  0
 36 39  1  0     0  0
 37 41  1  0     0  0
 40 41  1  0     0  0
M  END
> <standard_type>
pIC50

> <# Confs.>
25

> <canonical_smiles>
COC1=CC=CC(NC(CC2=CN=C(NC3=NC=NC4=CC(OCCCN5[C@H](CO)CCC5)=C(OC)C=C43)S2)=O)=C1

> <standard_relation>
=

> <Publication_ID>
Wang_2009

> <predicted_activity_value>
7.795880017344075

> <actual_activity_value>
8.301029995663981

> <Compound>
21

> <standard_units>
nM

> hash
12533943428153564438

$$$$
21_
XXILIB    08252103423D 0   0.00000     0.00000

 41 45  0     1  0            999 V2000
    3.9963    0.4445    0.7698 S   0  0  0  0  0  2           0  0  0
   -3.0942    0.3197   -4.6508 O   0  0  0  0  0  2           0  0  0
   -0.1879    0.1859   -4.8603 O   0  0  0  0  0  2           0  0  0
    7.0659   -3.7087    7.4370 O   0  0  0  0  0  2           0  0  0
    5.2382    2.1902    5.1002 O   0  0  0  0  0  2           0  0  0
   -5.3171   -3.1108   -9.1615 O   0  0  0  0  0  2           0  0  0
    1.8580    1.1559    2.0031 N   0  0  0  0  0  3           0  0  0
   -0.6593    0.0000    1.1855 N   0  0  0  0  0  3           0  0  0
   -2.7581    0.0616    0.0284 N   0  0  0  0  0  3           0  0  0
    1.4139   -0.0000    0.0000 N   0  0  0  0  0  3           0  0  0
    5.9617    0.0510    4.5479 N   0  0  0  0  0  3           0  0  0
   -4.0886    0.2856   -8.1391 N   0  0  2  0  0  3           0  0  0
    2.2657    0.5284    0.9152 C   0  0  0  0  0  4           0  0  0
    4.1784    1.3079    2.2351 C   0  0  0  0  0  4           0  0  0
   -2.2587    0.2233   -3.5748 C   0  0  0  0  0  4           0  0  0
   -0.8715    0.1581   -3.6779 C   0  0  0  0  0  4           0  0  0
    6.6520   -2.4274    7.2063 C   0  0  0  0  0  4           0  0  0
   -1.9982    0.0239    1.1322 C   0  0  0  0  0  4           0  0  0
    0.0000   -0.0000    0.0000 C   0  0  0  0  0  4           0  0  0
   -2.1124    0.0884   -1.1443 C   0  0  0  0  0  4           0  0  0
    2.9328    1.5931    2.7491 C   0  0  0  0  0  4           0  0  0
    6.0838   -0.5003    5.8372 C   0  0  0  0  0  4           0  0  0
   -0.7049    0.0650   -1.2299 C   0  0  0  0  0  4           0  0  0
   -2.8616    0.1571   -2.3157 C   0  0  0  0  0  4           0  0  0
    6.5190   -1.8296    5.9475 C   0  0  0  0  0  4           0  0  0
   -0.1027    0.1096   -2.5130 C   0  0  0  0  0  4           0  0  0
    6.3491   -1.6873    8.3528 C   0  0  0  0  0  4           0  0  0
    5.7849    0.2305    6.9924 C   0  0  0  0  0  4           0  0  0
    5.9172   -0.3656    8.2464 C   0  0  0  0  0  4           0  0  0
    5.5476    1.3409    4.2651 C   0  0  0  0  0  4           0  0  0
   -2.9060    1.4701   -5.4756 C   0  0  0  0  0  4           0  0  0
   -4.6529   -2.1673   -8.3289 C   0  0  0  0  0  4           0  0  0
    0.0513   -1.0871   -5.4554 C   0  0  0  0  0  4           0  0  0
    7.3787   -4.4668    6.2710 C   0  0  0  0  0  4           0  0  0
   -4.7482   -0.7708   -8.9286 C   0  0  2  0  0  4           0  0  0
   -4.8556    0.7492   -6.9810 C   0  0  0  0  0  4           0  0  0
   -3.8854    1.3845   -9.0923 C   0  0  0  0  0  4           0  0  0
    5.5192    1.6369    2.7829 C   0  0  0  0  0  4           0  0  0
   -4.2411    1.8485   -6.1041 C   0  0  0  0  0  4           0  0  0
   -4.0395   -0.6945  -10.2907 C   0  0  0  0  0  4           0  0  0
   -3.3761    0.6742  -10.3305 C   0  0  0  0  0  4           0  0  0
  1 13  1  0     0  0
  1 14  1  0     0  0
  2 15  1  0     0  0
  2 31  1  0     0  0
  3 16  1  0     0  0
  3 33  1  0     0  0
  4 17  1  0     0  0
  4 34  1  0     0  0
  5 30  2  0     0  0
  6 32  1  0     0  0
  7 13  2  0     0  0
  7 21  1  0     0  0
  8 18  1  0     0  0
  8 19  2  0     0  0
  9 18  2  0     0  0
  9 20  1  0     0  0
 10 13  1  0     0  0
 10 19  1  0     0  0
 11 22  1  0     0  0
 11 30  1  0     0  0
 12 35  1  0     0  0
 12 36  1  0     0  0
 12 37  1  0     0  0
 14 21  2  0     0  0
 14 38  1  0     0  0
 15 16  2  0     0  0
 15 24  1  0     0  0
 16 26  1  0     0  0
 17 25  1  0     0  0
 17 27  2  0     0  0
 19 23  1  0     0  0
 20 23  1  0     0  0
 20 24  2  0     0  0
 22 25  2  0     0  0
 22 28  1  0     0  0
 23 26  2  0     0  0
 27 29  1  0     0  0
 28 29  2  0     0  0
 30 38  1  0     0  0
 31 39  1  0     0  0
 32 35  1  0     0  0
 35 40  1  0     0  0
 36 39  1  0     0  0
 37 41  1  0     0  0
 40 41  1  0     0  0
M  END
> <standard_type>
pIC50

> <# Confs.>
25

> <canonical_smiles>
COC1=CC=CC(NC(CC2=CN=C(NC3=NC=NC4=CC(OCCCN5[C@H](CO)CCC5)=C(OC)C=C43)S2)=O)=C1

> <standard_relation>
=

> <Publication_ID>
Wang_2009

> <predicted_activity_value>
7.795880017344075

> <actual_activity_value>
8.301029995663981

> <Compound>
21

> <standard_units>
nM

> hash
12533943428153564438

$$$$
21_
XXILIB    08252103423D 0   0.00000     0.00000

 41 45  0     1  0            999 V2000
    3.9963    0.4445    0.7698 S   0  0  0  0  0  2           0  0  0
   -3.0942    0.3197   -4.6508 O   0  0  0  0  0  2           0  0  0
   -0.1879    0.1859   -4.8603 O   0  0  0  0  0  2           0  0  0
    9.2458   -4.5854    2.6275 O   0  0  0  0  0  2           0  0  0
    5.7305    0.5226    4.8968 O   0  0  0  0  0  2           0  0  0
   -6.5881   -1.3014  -10.5392 O   0  0  0  0  0  2           0  0  0
    1.8580    1.1559    2.0031 N   0  0  0  0  0  3           0  0  0
   -0.6593    0.0000    1.1855 N   0  0  0  0  0  3           0  0  0
   -2.7581    0.0616    0.0284 N   0  0  0  0  0  3           0  0  0
    1.4139   -0.0000   -0.0000 N   0  0  0  0  0  3           0  0  0
    6.7070   -0.4504    3.0248 N   0  0  0  0  0  3           0  0  0
   -6.1407    1.0244   -7.6271 N   0  0  2  0  0  3           0  0  0
    2.2657    0.5284    0.9152 C   0  0  0  0  0  4           0  0  0
    4.1784    1.3079    2.2351 C   0  0  0  0  0  4           0  0  0
   -2.2587    0.2233   -3.5748 C   0  0  0  0  0  4           0  0  0
   -0.8715    0.1581   -3.6779 C   0  0  0  0  0  4           0  0  0
    8.5367   -3.6514    3.3283 C   0  0  0  0  0  4           0  0  0
   -1.9982    0.0239    1.1322 C   0  0  0  0  0  4           0  0  0
    0.0000   -0.0000    0.0000 C   0  0  0  0  0  4           0  0  0
   -2.1124    0.0884   -1.1443 C   0  0  0  0  0  4           0  0  0
    2.9328    1.5931    2.7491 C   0  0  0  0  0  4           0  0  0
    7.2616   -1.6013    3.6155 C   0  0  0  0  0  4           0  0  0
   -0.7049    0.0650   -1.2299 C   0  0  0  0  0  4           0  0  0
   -2.8616    0.1571   -2.3157 C   0  0  0  0  0  4           0  0  0
    7.9700   -2.4892    2.7918 C   0  0  0  0  0  4           0  0  0
   -0.1027    0.1096   -2.5130 C   0  0  0  0  0  4           0  0  0
    8.3919   -3.9185    4.6927 C   0  0  0  0  0  4           0  0  0
    7.1247   -1.8793    4.9800 C   0  0  0  0  0  4           0  0  0
    7.6891   -3.0375    5.5141 C   0  0  0  0  0  4           0  0  0
    5.9827    0.5217    3.6923 C   0  0  0  0  0  4           0  0  0
   -2.9060    1.4701   -5.4756 C   0  0  0  0  0  4           0  0  0
   -6.0189   -0.2100   -9.8254 C   0  0  0  0  0  4           0  0  0
    0.0513   -1.0871   -5.4554 C   0  0  0  0  0  4           0  0  0
    9.3987   -4.3160    1.2362 C   0  0  0  0  0  4           0  0  0
   -6.6622   -0.0817   -8.4511 C   0  0  2  0  0  4           0  0  0
   -4.8556    0.7492   -6.9810 C   0  0  0  0  0  4           0  0  0
   -7.1829    1.2542   -6.6177 C   0  0  0  0  0  4           0  0  0
    5.5192    1.6369    2.7829 C   0  0  0  0  0  4           0  0  0
   -4.2411    1.8485   -6.1041 C   0  0  0  0  0  4           0  0  0
   -8.1635    0.2306   -8.5602 C   0  0  0  0  0  4           0  0  0
   -8.4622    1.2029   -7.4286 C   0  0  0  0  0  4           0  0  0
  1 13  1  0     0  0
  1 14  1  0     0  0
  2 15  1  0     0  0
  2 31  1  0     0  0
  3 16  1  0     0  0
  3 33  1  0     0  0
  4 17  1  0     0  0
  4 34  1  0     0  0
  5 30  2  0     0  0
  6 32  1  0     0  0
  7 13  2  0     0  0
  7 21  1  0     0  0
  8 18  1  0     0  0
  8 19  2  0     0  0
  9 18  2  0     0  0
  9 20  1  0     0  0
 10 13  1  0     0  0
 10 19  1  0     0  0
 11 22  1  0     0  0
 11 30  1  0     0  0
 12 35  1  0     0  0
 12 36  1  0     0  0
 12 37  1  0     0  0
 14 21  2  0     0  0
 14 38  1  0     0  0
 15 16  2  0     0  0
 15 24  1  0     0  0
 16 26  1  0     0  0
 17 25  1  0     0  0
 17 27  2  0     0  0
 19 23  1  0     0  0
 20 23  1  0     0  0
 20 24  2  0     0  0
 22 25  2  0     0  0
 22 28  1  0     0  0
 23 26  2  0     0  0
 27 29  1  0     0  0
 28 29  2  0     0  0
 30 38  1  0     0  0
 31 39  1  0     0  0
 32 35  1  0     0  0
 35 40  1  0     0  0
 36 39  1  0     0  0
 37 41  1  0     0  0
 40 41  1  0     0  0
M  END
> <standard_type>
pIC50

> <# Confs.>
25

> <canonical_smiles>
COC1=CC=CC(NC(CC2=CN=C(NC3=NC=NC4=CC(OCCCN5[C@H](CO)CCC5)=C(OC)C=C43)S2)=O)=C1

> <standard_relation>
=

> <Publication_ID>
Wang_2009

> <predicted_activity_value>
7.795880017344075

> <actual_activity_value>
8.301029995663981

> <Compound>
21

> <standard_units>
nM

> hash
12533943428153564438

$$$$
21_
XXILIB    08252103423D 0   0.00000     0.00000

 41 45  0     1  0            999 V2000
    3.9963    0.4445    0.7698 S   0  0  0  0  0  2           0  0  0
   -3.0942    0.3197   -4.6508 O   0  0  0  0  0  2           0  0  0
   -0.1879    0.1859   -4.8603 O   0  0  0  0  0  2           0  0  0
    7.0659   -3.7087    7.4370 O   0  0  0  0  0  2           0  0  0
    5.2382    2.1902    5.1002 O   0  0  0  0  0  2           0  0  0
   -7.6171   -2.1914   -1.4424 O   0  0  0  0  0  2           0  0  0
    1.8580    1.1559    2.0031 N   0  0  0  0  0  3           0  0  0
   -0.6593   -0.0000    1.1855 N   0  0  0  0  0  3           0  0  0
   -2.7581    0.0616    0.0284 N   0  0  0  0  0  3           0  0  0
    1.4139   -0.0000    0.0000 N   0  0  0  0  0  3           0  0  0
    5.9617    0.0510    4.5479 N   0  0  0  0  0  3           0  0  0
   -5.3975   -2.4759   -4.4561 N   0  0  2  0  0  3           0  0  0
    2.2657    0.5284    0.9152 C   0  0  0  0  0  4           0  0  0
    4.1784    1.3079    2.2351 C   0  0  0  0  0  4           0  0  0
   -2.2587    0.2233   -3.5748 C   0  0  0  0  0  4           0  0  0
   -0.8715    0.1581   -3.6779 C   0  0  0  0  0  4           0  0  0
    6.6520   -2.4274    7.2063 C   0  0  0  0  0  4           0  0  0
   -1.9982    0.0239    1.1322 C   0  0  0  0  0  4           0  0  0
    0.0000    0.0000    0.0000 C   0  0  0  0  0  4           0  0  0
   -2.1124    0.0884   -1.1443 C   0  0  0  0  0  4           0  0  0
    2.9328    1.5931    2.7491 C   0  0  0  0  0  4           0  0  0
    6.0838   -0.5003    5.8372 C   0  0  0  0  0  4           0  0  0
   -0.7049    0.0650   -1.2299 C   0  0  0  0  0  4           0  0  0
   -2.8616    0.1571   -2.3157 C   0  0  0  0  0  4           0  0  0
    6.5190   -1.8296    5.9475 C   0  0  0  0  0  4           0  0  0
   -0.1027    0.1096   -2.5130 C   0  0  0  0  0  4           0  0  0
    6.3491   -1.6873    8.3528 C   0  0  0  0  0  4           0  0  0
    5.7849    0.2305    6.9924 C   0  0  0  0  0  4           0  0  0
    5.9172   -0.3656    8.2464 C   0  0  0  0  0  4           0  0  0
    5.5476    1.3409    4.2651 C   0  0  0  0  0  4           0  0  0
   -3.0189   -0.7557   -5.5872 C   0  0  0  0  0  4           0  0  0
   -6.4912   -1.8891   -2.2582 C   0  0  0  0  0  4           0  0  0
    0.1823    1.4837   -5.3193 C   0  0  0  0  0  4           0  0  0
    7.3787   -4.4668    6.2710 C   0  0  0  0  0  4           0  0  0
   -6.5256   -2.7151   -3.5371 C   0  0  2  0  0  4           0  0  0
   -5.5145   -1.2575   -5.2601 C   0  0  0  0  0  4           0  0  0
   -5.3715   -3.6614   -5.3230 C   0  0  0  0  0  4           0  0  0
    5.5192    1.6369    2.7829 C   0  0  0  0  0  4           0  0  0
   -4.3822   -0.9329   -6.2437 C   0  0  0  0  0  4           0  0  0
   -6.4297   -4.2198   -3.2372 C   0  0  0  0  0  4           0  0  0
   -5.5680   -4.8039   -4.3469 C   0  0  0  0  0  4           0  0  0
  1 13  1  0     0  0
  1 14  1  0     0  0
  2 15  1  0     0  0
  2 31  1  0     0  0
  3 16  1  0     0  0
  3 33  1  0     0  0
  4 17  1  0     0  0
  4 34  1  0     0  0
  5 30  2  0     0  0
  6 32  1  0     0  0
  7 13  2  0     0  0
  7 21  1  0     0  0
  8 18  1  0     0  0
  8 19  2  0     0  0
  9 18  2  0     0  0
  9 20  1  0     0  0
 10 13  1  0     0  0
 10 19  1  0     0  0
 11 22  1  0     0  0
 11 30  1  0     0  0
 12 35  1  0     0  0
 12 36  1  0     0  0
 12 37  1  0     0  0
 14 21  2  0     0  0
 14 38  1  0     0  0
 15 16  2  0     0  0
 15 24  1  0     0  0
 16 26  1  0     0  0
 17 25  1  0     0  0
 17 27  2  0     0  0
 19 23  1  0     0  0
 20 23  1  0     0  0
 20 24  2  0     0  0
 22 25  2  0     0  0
 22 28  1  0     0  0
 23 26  2  0     0  0
 27 29  1  0     0  0
 28 29  2  0     0  0
 30 38  1  0     0  0
 31 39  1  0     0  0
 32 35  1  0     0  0
 35 40  1  0     0  0
 36 39  1  0     0  0
 37 41  1  0     0  0
 40 41  1  0     0  0
M  END
> <standard_type>
pIC50

> <# Confs.>
25

> <canonical_smiles>
COC1=CC=CC(NC(CC2=CN=C(NC3=NC=NC4=CC(OCCCN5[C@H](CO)CCC5)=C(OC)C=C43)S2)=O)=C1

> <standard_relation>
=

> <Publication_ID>
Wang_2009

> <predicted_activity_value>
7.795880017344075

> <actual_activity_value>
8.301029995663981

> <Compound>
21

> <standard_units>
nM

> hash
12533943428153564438

$$$$
21_
XXILIB    08252103423D 0   0.00000     0.00000

 41 45  0     1  0            999 V2000
    3.9963    0.4445    0.7698 S   0  0  0  0  0  2           0  0  0
   -3.0942    0.3197   -4.6508 O   0  0  0  0  0  2           0  0  0
   -0.1879    0.1859   -4.8603 O   0  0  0  0  0  2           0  0  0
    9.2458   -4.5854    2.6275 O   0  0  0  0  0  2           0  0  0
    5.7305    0.5226    4.8968 O   0  0  0  0  0  2           0  0  0
   -8.9262   -3.3946   -3.3467 O   0  0  0  0  0  2           0  0  0
    1.8580    1.1559    2.0031 N   0  0  0  0  0  3           0  0  0
   -0.6593   -0.0000    1.1855 N   0  0  0  0  0  3           0  0  0
   -2.7581    0.0616    0.0284 N   0  0  0  0  0  3           0  0  0
    1.4139   -0.0000   -0.0000 N   0  0  0  0  0  3           0  0  0
    6.7070   -0.4504    3.0248 N   0  0  0  0  0  3           0  0  0
   -6.8621   -1.4450   -5.8020 N   0  0  2  0  0  3           0  0  0
    2.2657    0.5284    0.9152 C   0  0  0  0  0  4           0  0  0
    4.1784    1.3079    2.2351 C   0  0  0  0  0  4           0  0  0
   -2.2587    0.2233   -3.5748 C   0  0  0  0  0  4           0  0  0
   -0.8715    0.1581   -3.6779 C   0  0  0  0  0  4           0  0  0
    8.5367   -3.6514    3.3283 C   0  0  0  0  0  4           0  0  0
   -1.9982    0.0239    1.1322 C   0  0  0  0  0  4           0  0  0
    0.0000    0.0000    0.0000 C   0  0  0  0  0  4           0  0  0
   -2.1124    0.0884   -1.1443 C   0  0  0  0  0  4           0  0  0
    2.9328    1.5931    2.7491 C   0  0  0  0  0  4           0  0  0
    7.2616   -1.6013    3.6155 C   0  0  0  0  0  4           0  0  0
   -0.7049    0.0650   -1.2299 C   0  0  0  0  0  4           0  0  0
   -2.8616    0.1571   -2.3157 C   0  0  0  0  0  4           0  0  0
    7.9700   -2.4892    2.7918 C   0  0  0  0  0  4           0  0  0
   -0.1027    0.1096   -2.5130 C   0  0  0  0  0  4           0  0  0
    8.3919   -3.9185    4.6927 C   0  0  0  0  0  4           0  0  0
    7.1247   -1.8793    4.9800 C   0  0  0  0  0  4           0  0  0
    7.6891   -3.0375    5.5141 C   0  0  0  0  0  4           0  0  0
    5.9827    0.5217    3.6923 C   0  0  0  0  0  4           0  0  0
   -3.0189   -0.7557   -5.5872 C   0  0  0  0  0  4           0  0  0
   -7.9018   -3.1995   -4.3148 C   0  0  0  0  0  4           0  0  0
    0.1823    1.4837   -5.3193 C   0  0  0  0  0  4           0  0  0
    9.3987   -4.3160    1.2362 C   0  0  0  0  0  4           0  0  0
   -7.8916   -1.7536   -4.7925 C   0  0  2  0  0  4           0  0  0
   -5.5145   -1.2575   -5.2601 C   0  0  0  0  0  4           0  0  0
   -7.3333   -0.2098   -6.4422 C   0  0  0  0  0  4           0  0  0
    5.5192    1.6369    2.7829 C   0  0  0  0  0  4           0  0  0
   -4.3822   -0.9329   -6.2437 C   0  0  0  0  0  4           0  0  0
   -9.2066   -1.3857   -5.4987 C   0  0  0  0  0  4           0  0  0
   -8.8108   -0.4745   -6.6512 C   0  0  0  0  0  4           0  0  0
  1 13  1  0     0  0
  1 14  1  0     0  0
  2 15  1  0     0  0
  2 31  1  0     0  0
  3 16  1  0     0  0
  3 33  1  0     0  0
  4 17  1  0     0  0
  4 34  1  0     0  0
  5 30  2  0     0  0
  6 32  1  0     0  0
  7 13  2  0     0  0
  7 21  1  0     0  0
  8 18  1  0     0  0
  8 19  2  0     0  0
  9 18  2  0     0  0
  9 20  1  0     0  0
 10 13  1  0     0  0
 10 19  1  0     0  0
 11 22  1  0     0  0
 11 30  1  0     0  0
 12 35  1  0     0  0
 12 36  1  0     0  0
 12 37  1  0     0  0
 14 21  2  0     0  0
 14 38  1  0     0  0
 15 16  2  0     0  0
 15 24  1  0     0  0
 16 26  1  0     0  0
 17 25  1  0     0  0
 17 27  2  0     0  0
 19 23  1  0     0  0
 20 23  1  0     0  0
 20 24  2  0     0  0
 22 25  2  0     0  0
 22 28  1  0     0  0
 23 26  2  0     0  0
 27 29  1  0     0  0
 28 29  2  0     0  0
 30 38  1  0     0  0
 31 39  1  0     0  0
 32 35  1  0     0  0
 35 40  1  0     0  0
 36 39  1  0     0  0
 37 41  1  0     0  0
 40 41  1  0     0  0
M  END
> <standard_type>
pIC50

> <# Confs.>
25

> <canonical_smiles>
COC1=CC=CC(NC(CC2=CN=C(NC3=NC=NC4=CC(OCCCN5[C@H](CO)CCC5)=C(OC)C=C43)S2)=O)=C1

> <standard_relation>
=

> <Publication_ID>
Wang_2009

> <predicted_activity_value>
7.795880017344075

> <actual_activity_value>
8.301029995663981

> <Compound>
21

> <standard_units>
nM

> hash
12533943428153564438

$$$$
21_
XXILIB    08252103423D 0   0.00000     0.00000

 41 45  0     1  0            999 V2000
    3.9963    0.4445    0.7698 S   0  0  0  0  0  2           0  0  0
   -3.0942    0.3197   -4.6508 O   0  0  0  0  0  2           0  0  0
   -0.1879    0.1859   -4.8603 O   0  0  0  0  0  2           0  0  0
    9.2458   -4.5854    2.6275 O   0  0  0  0  0  2           0  0  0
    5.7305    0.5226    4.8968 O   0  0  0  0  0  2           0  0  0
   -7.6171   -2.1914   -1.4424 O   0  0  0  0  0  2           0  0  0
    1.8580    1.1559    2.0031 N   0  0  0  0  0  3           0  0  0
   -0.6593   -0.0000    1.1855 N   0  0  0  0  0  3           0  0  0
   -2.7581    0.0616    0.0284 N   0  0  0  0  0  3           0  0  0
    1.4139   -0.0000   -0.0000 N   0  0  0  0  0  3           0  0  0
    6.7070   -0.4504    3.0248 N   0  0  0  0  0  3           0  0  0
   -5.3975   -2.4759   -4.4561 N   0  0  2  0  0  3           0  0  0
    2.2657    0.5284    0.9152 C   0  0  0  0  0  4           0  0  0
    4.1784    1.3079    2.2351 C   0  0  0  0  0  4           0  0  0
   -2.2587    0.2233   -3.5748 C   0  0  0  0  0  4           0  0  0
   -0.8715    0.1581   -3.6779 C   0  0  0  0  0  4           0  0  0
    8.5367   -3.6514    3.3283 C   0  0  0  0  0  4           0  0  0
   -1.9982    0.0239    1.1322 C   0  0  0  0  0  4           0  0  0
    0.0000    0.0000    0.0000 C   0  0  0  0  0  4           0  0  0
   -2.1124    0.0884   -1.1443 C   0  0  0  0  0  4           0  0  0
    2.9328    1.5931    2.7491 C   0  0  0  0  0  4           0  0  0
    7.2616   -1.6013    3.6155 C   0  0  0  0  0  4           0  0  0
   -0.7049    0.0650   -1.2299 C   0  0  0  0  0  4           0  0  0
   -2.8616    0.1571   -2.3157 C   0  0  0  0  0  4           0  0  0
    7.9700   -2.4892    2.7918 C   0  0  0  0  0  4           0  0  0
   -0.1027    0.1096   -2.5130 C   0  0  0  0  0  4           0  0  0
    8.3919   -3.9185    4.6927 C   0  0  0  0  0  4           0  0  0
    7.1247   -1.8793    4.9800 C   0  0  0  0  0  4           0  0  0
    7.6891   -3.0375    5.5141 C   0  0  0  0  0  4           0  0  0
    5.9827    0.5217    3.6923 C   0  0  0  0  0  4           0  0  0
   -3.0189   -0.7557   -5.5872 C   0  0  0  0  0  4           0  0  0
   -6.4912   -1.8891   -2.2582 C   0  0  0  0  0  4           0  0  0
    0.1823    1.4837   -5.3193 C   0  0  0  0  0  4           0  0  0
    9.3987   -4.3160    1.2362 C   0  0  0  0  0  4           0  0  0
   -6.5256   -2.7151   -3.5371 C   0  0  2  0  0  4           0  0  0
   -5.5145   -1.2575   -5.2601 C   0  0  0  0  0  4           0  0  0
   -5.3715   -3.6614   -5.3230 C   0  0  0  0  0  4           0  0  0
    5.5192    1.6369    2.7829 C   0  0  0  0  0  4           0  0  0
   -4.3822   -0.9329   -6.2437 C   0  0  0  0  0  4           0  0  0
   -6.4297   -4.2198   -3.2372 C   0  0  0  0  0  4           0  0  0
   -5.5680   -4.8039   -4.3469 C   0  0  0  0  0  4           0  0  0
  1 13  1  0     0  0
  1 14  1  0     0  0
  2 15  1  0     0  0
  2 31  1  0     0  0
  3 16  1  0     0  0
  3 33  1  0     0  0
  4 17  1  0     0  0
  4 34  1  0     0  0
  5 30  2  0     0  0
  6 32  1  0     0  0
  7 13  2  0     0  0
  7 21  1  0     0  0
  8 18  1  0     0  0
  8 19  2  0     0  0
  9 18  2  0     0  0
  9 20  1  0     0  0
 10 13  1  0     0  0
 10 19  1  0     0  0
 11 22  1  0     0  0
 11 30  1  0     0  0
 12 35  1  0     0  0
 12 36  1  0     0  0
 12 37  1  0     0  0
 14 21  2  0     0  0
 14 38  1  0     0  0
 15 16  2  0     0  0
 15 24  1  0     0  0
 16 26  1  0     0  0
 17 25  1  0     0  0
 17 27  2  0     0  0
 19 23  1  0     0  0
 20 23  1  0     0  0
 20 24  2  0     0  0
 22 25  2  0     0  0
 22 28  1  0     0  0
 23 26  2  0     0  0
 27 29  1  0     0  0
 28 29  2  0     0  0
 30 38  1  0     0  0
 31 39  1  0     0  0
 32 35  1  0     0  0
 35 40  1  0     0  0
 36 39  1  0     0  0
 37 41  1  0     0  0
 40 41  1  0     0  0
M  END
> <standard_type>
pIC50

> <# Confs.>
25

> <canonical_smiles>
COC1=CC=CC(NC(CC2=CN=C(NC3=NC=NC4=CC(OCCCN5[C@H](CO)CCC5)=C(OC)C=C43)S2)=O)=C1

> <standard_relation>
=

> <Publication_ID>
Wang_2009

> <predicted_activity_value>
7.795880017344075

> <actual_activity_value>
8.301029995663981

> <Compound>
21

> <standard_units>
nM

> hash
12533943428153564438

$$$$
21_
XXILIB    08252103423D 0   0.00000     0.00000

 41 45  0     1  0            999 V2000
    3.9963    0.4445    0.7698 S   0  0  0  0  0  2           0  0  0
   -3.0942    0.3197   -4.6508 O   0  0  0  0  0  2           0  0  0
   -0.1879    0.1859   -4.8603 O   0  0  0  0  0  2           0  0  0
    9.1318    4.5543   -2.7909 O   0  0  0  0  0  2           0  0  0
    5.7133    4.0275    2.8335 O   0  0  0  0  0  2           0  0  0
   -7.6171   -2.1914   -1.4424 O   0  0  0  0  0  2           0  0  0
    1.8580    1.1559    2.0031 N   0  0  0  0  0  3           0  0  0
   -0.6593   -0.0000    1.1855 N   0  0  0  0  0  3           0  0  0
   -2.7581    0.0616    0.0284 N   0  0  0  0  0  3           0  0  0
    1.4139   -0.0000   -0.0000 N   0  0  0  0  0  3           0  0  0
    6.6688    2.8722    1.0569 N   0  0  0  0  0  3           0  0  0
   -5.3975   -2.4759   -4.4561 N   0  0  2  0  0  3           0  0  0
    2.2657    0.5284    0.9152 C   0  0  0  0  0  4           0  0  0
    4.1784    1.3079    2.2351 C   0  0  0  0  0  4           0  0  0
   -2.2587    0.2233   -3.5748 C   0  0  0  0  0  4           0  0  0
   -0.8715    0.1581   -3.6779 C   0  0  0  0  0  4           0  0  0
    8.4488    4.7065   -1.6177 C   0  0  0  0  0  4           0  0  0
   -1.9982    0.0239    1.1322 C   0  0  0  0  0  4           0  0  0
    0.0000    0.0000    0.0000 C   0  0  0  0  0  4           0  0  0
   -2.1124    0.0884   -1.1443 C   0  0  0  0  0  4           0  0  0
    2.9328    1.5931    2.7491 C   0  0  0  0  0  4           0  0  0
    7.2073    3.9516    0.3317 C   0  0  0  0  0  4           0  0  0
   -0.7049    0.0650   -1.2299 C   0  0  0  0  0  4           0  0  0
   -2.8616    0.1571   -2.3157 C   0  0  0  0  0  4           0  0  0
    7.8896    3.6697   -0.8615 C   0  0  0  0  0  4           0  0  0
   -0.1027    0.1096   -2.5130 C   0  0  0  0  0  4           0  0  0
    8.3197    6.0258   -1.1741 C   0  0  0  0  0  4           0  0  0
    7.0837    5.2766    0.7644 C   0  0  0  0  0  4           0  0  0
    7.6414    6.3093    0.0108 C   0  0  0  0  0  4           0  0  0
    5.9706    2.9767    2.2472 C   0  0  0  0  0  4           0  0  0
   -3.0189   -0.7557   -5.5872 C   0  0  0  0  0  4           0  0  0
   -6.4912   -1.8891   -2.2582 C   0  0  0  0  0  4           0  0  0
    0.1823    1.4837   -5.3193 C   0  0  0  0  0  4           0  0  0
    9.2637    3.2109   -3.2488 C   0  0  0  0  0  4           0  0  0
   -6.5256   -2.7151   -3.5371 C   0  0  2  0  0  4           0  0  0
   -5.5145   -1.2575   -5.2601 C   0  0  0  0  0  4           0  0  0
   -5.3715   -3.6614   -5.3230 C   0  0  0  0  0  4           0  0  0
    5.5192    1.6369    2.7829 C   0  0  0  0  0  4           0  0  0
   -4.3822   -0.9329   -6.2437 C   0  0  0  0  0  4           0  0  0
   -6.4297   -4.2198   -3.2372 C   0  0  0  0  0  4           0  0  0
   -5.5680   -4.8039   -4.3469 C   0  0  0  0  0  4           0  0  0
  1 13  1  0     0  0
  1 14  1  0     0  0
  2 15  1  0     0  0
  2 31  1  0     0  0
  3 16  1  0     0  0
  3 33  1  0     0  0
  4 17  1  0     0  0
  4 34  1  0     0  0
  5 30  2  0     0  0
  6 32  1  0     0  0
  7 13  2  0     0  0
  7 21  1  0     0  0
  8 18  1  0     0  0
  8 19  2  0     0  0
  9 18  2  0     0  0
  9 20  1  0     0  0
 10 13  1  0     0  0
 10 19  1  0     0  0
 11 22  1  0     0  0
 11 30  1  0     0  0
 12 35  1  0     0  0
 12 36  1  0     0  0
 12 37  1  0     0  0
 14 21  2  0     0  0
 14 38  1  0     0  0
 15 16  2  0     0  0
 15 24  1  0     0  0
 16 26  1  0     0  0
 17 25  1  0     0  0
 17 27  2  0     0  0
 19 23  1  0     0  0
 20 23  1  0     0  0
 20 24  2  0     0  0
 22 25  2  0     0  0
 22 28  1  0     0  0
 23 26  2  0     0  0
 27 29  1  0     0  0
 28 29  2  0     0  0
 30 38  1  0     0  0
 31 39  1  0     0  0
 32 35  1  0     0  0
 35 40  1  0     0  0
 36 39  1  0     0  0
 37 41  1  0     0  0
 40 41  1  0     0  0
M  END
> <standard_type>
pIC50

> <# Confs.>
25

> <canonical_smiles>
COC1=CC=CC(NC(CC2=CN=C(NC3=NC=NC4=CC(OCCCN5[C@H](CO)CCC5)=C(OC)C=C43)S2)=O)=C1

> <standard_relation>
=

> <Publication_ID>
Wang_2009

> <predicted_activity_value>
7.795880017344075

> <actual_activity_value>
8.301029995663981

> <Compound>
21

> <standard_units>
nM

> hash
12533943428153564438

$$$$
21_
XXILIB    08252103423D 0   0.00000     0.00000

 41 45  0     1  0            999 V2000
    3.9963    0.4445    0.7698 S   0  0  0  0  0  2           0  0  0
   -3.0942    0.3197   -4.6508 O   0  0  0  0  0  2           0  0  0
   -0.1879    0.1859   -4.8603 O   0  0  0  0  0  2           0  0  0
    9.1318    4.5543   -2.7909 O   0  0  0  0  0  2           0  0  0
    5.7133    4.0275    2.8335 O   0  0  0  0  0  2           0  0  0
   -8.9262   -3.3946   -3.3467 O   0  0  0  0  0  2           0  0  0
    1.8580    1.1559    2.0031 N   0  0  0  0  0  3           0  0  0
   -0.6593   -0.0000    1.1855 N   0  0  0  0  0  3           0  0  0
   -2.7581    0.0616    0.0284 N   0  0  0  0  0  3           0  0  0
    1.4139   -0.0000   -0.0000 N   0  0  0  0  0  3           0  0  0
    6.6688    2.8722    1.0569 N   0  0  0  0  0  3           0  0  0
   -6.8621   -1.4450   -5.8020 N   0  0  2  0  0  3           0  0  0
    2.2657    0.5284    0.9152 C   0  0  0  0  0  4           0  0  0
    4.1784    1.3079    2.2351 C   0  0  0  0  0  4           0  0  0
   -2.2587    0.2233   -3.5748 C   0  0  0  0  0  4           0  0  0
   -0.8715    0.1581   -3.6779 C   0  0  0  0  0  4           0  0  0
    8.4488    4.7065   -1.6177 C   0  0  0  0  0  4           0  0  0
   -1.9982    0.0239    1.1322 C   0  0  0  0  0  4           0  0  0
    0.0000    0.0000    0.0000 C   0  0  0  0  0  4           0  0  0
   -2.1124    0.0884   -1.1443 C   0  0  0  0  0  4           0  0  0
    2.9328    1.5931    2.7491 C   0  0  0  0  0  4           0  0  0
    7.2073    3.9516    0.3317 C   0  0  0  0  0  4           0  0  0
   -0.7049    0.0650   -1.2299 C   0  0  0  0  0  4           0  0  0
   -2.8616    0.1571   -2.3157 C   0  0  0  0  0  4           0  0  0
    7.8896    3.6697   -0.8615 C   0  0  0  0  0  4           0  0  0
   -0.1027    0.1096   -2.5130 C   0  0  0  0  0  4           0  0  0
    8.3197    6.0258   -1.1741 C   0  0  0  0  0  4           0  0  0
    7.0837    5.2766    0.7644 C   0  0  0  0  0  4           0  0  0
    7.6414    6.3093    0.0108 C   0  0  0  0  0  4           0  0  0
    5.9706    2.9767    2.2472 C   0  0  0  0  0  4           0  0  0
   -3.0189   -0.7557   -5.5872 C   0  0  0  0  0  4           0  0  0
   -7.9018   -3.1995   -4.3148 C   0  0  0  0  0  4           0  0  0
    0.1823    1.4837   -5.3193 C   0  0  0  0  0  4           0  0  0
    9.2637    3.2109   -3.2488 C   0  0  0  0  0  4           0  0  0
   -7.8916   -1.7536   -4.7925 C   0  0  2  0  0  4           0  0  0
   -5.5145   -1.2575   -5.2601 C   0  0  0  0  0  4           0  0  0
   -7.3333   -0.2098   -6.4422 C   0  0  0  0  0  4           0  0  0
    5.5192    1.6369    2.7829 C   0  0  0  0  0  4           0  0  0
   -4.3822   -0.9329   -6.2437 C   0  0  0  0  0  4           0  0  0
   -9.2066   -1.3857   -5.4987 C   0  0  0  0  0  4           0  0  0
   -8.8108   -0.4745   -6.6512 C   0  0  0  0  0  4           0  0  0
  1 13  1  0     0  0
  1 14  1  0     0  0
  2 15  1  0     0  0
  2 31  1  0     0  0
  3 16  1  0     0  0
  3 33  1  0     0  0
  4 17  1  0     0  0
  4 34  1  0     0  0
  5 30  2  0     0  0
  6 32  1  0     0  0
  7 13  2  0     0  0
  7 21  1  0     0  0
  8 18  1  0     0  0
  8 19  2  0     0  0
  9 18  2  0     0  0
  9 20  1  0     0  0
 10 13  1  0     0  0
 10 19  1  0     0  0
 11 22  1  0     0  0
 11 30  1  0     0  0
 12 35  1  0     0  0
 12 36  1  0     0  0
 12 37  1  0     0  0
 14 21  2  0     0  0
 14 38  1  0     0  0
 15 16  2  0     0  0
 15 24  1  0     0  0
 16 26  1  0     0  0
 17 25  1  0     0  0
 17 27  2  0     0  0
 19 23  1  0     0  0
 20 23  1  0     0  0
 20 24  2  0     0  0
 22 25  2  0     0  0
 22 28  1  0     0  0
 23 26  2  0     0  0
 27 29  1  0     0  0
 28 29  2  0     0  0
 30 38  1  0     0  0
 31 39  1  0     0  0
 32 35  1  0     0  0
 35 40  1  0     0  0
 36 39  1  0     0  0
 37 41  1  0     0  0
 40 41  1  0     0  0
M  END
> <standard_type>
pIC50

> <# Confs.>
25

> <canonical_smiles>
COC1=CC=CC(NC(CC2=CN=C(NC3=NC=NC4=CC(OCCCN5[C@H](CO)CCC5)=C(OC)C=C43)S2)=O)=C1

> <standard_relation>
=

> <Publication_ID>
Wang_2009

> <predicted_activity_value>
7.795880017344075

> <actual_activity_value>
8.301029995663981

> <Compound>
21

> <standard_units>
nM

> hash
12533943428153564438

$$$$
21_
XXILIB    08252103423D 0   0.00000     0.00000

 41 45  0     1  0            999 V2000
    3.9963    0.4445    0.7698 S   0  0  0  0  0  2           0  0  0
   -3.0942    0.3197   -4.6508 O   0  0  0  0  0  2           0  0  0
   -0.1879    0.1859   -4.8603 O   0  0  0  0  0  2           0  0  0
    7.0659   -3.7087    7.4370 O   0  0  0  0  0  2           0  0  0
    5.2382    2.1902    5.1002 O   0  0  0  0  0  2           0  0  0
   -6.5881   -1.3014  -10.5392 O   0  0  0  0  0  2           0  0  0
    1.8580    1.1559    2.0031 N   0  0  0  0  0  3           0  0  0
   -0.6593    0.0000    1.1855 N   0  0  0  0  0  3           0  0  0
   -2.7581    0.0616    0.0284 N   0  0  0  0  0  3           0  0  0
    1.4139   -0.0000    0.0000 N   0  0  0  0  0  3           0  0  0
    5.9617    0.0510    4.5479 N   0  0  0  0  0  3           0  0  0
   -6.1407    1.0244   -7.6271 N   0  0  2  0  0  3           0  0  0
    2.2657    0.5284    0.9152 C   0  0  0  0  0  4           0  0  0
    4.1784    1.3079    2.2351 C   0  0  0  0  0  4           0  0  0
   -2.2587    0.2233   -3.5748 C   0  0  0  0  0  4           0  0  0
   -0.8715    0.1581   -3.6779 C   0  0  0  0  0  4           0  0  0
    6.6520   -2.4274    7.2063 C   0  0  0  0  0  4           0  0  0
   -1.9982    0.0239    1.1322 C   0  0  0  0  0  4           0  0  0
    0.0000   -0.0000    0.0000 C   0  0  0  0  0  4           0  0  0
   -2.1124    0.0884   -1.1443 C   0  0  0  0  0  4           0  0  0
    2.9328    1.5931    2.7491 C   0  0  0  0  0  4           0  0  0
    6.0838   -0.5003    5.8372 C   0  0  0  0  0  4           0  0  0
   -0.7049    0.0650   -1.2299 C   0  0  0  0  0  4           0  0  0
   -2.8616    0.1571   -2.3157 C   0  0  0  0  0  4           0  0  0
    6.5190   -1.8296    5.9475 C   0  0  0  0  0  4           0  0  0
   -0.1027    0.1096   -2.5130 C   0  0  0  0  0  4           0  0  0
    6.3491   -1.6873    8.3528 C   0  0  0  0  0  4           0  0  0
    5.7849    0.2305    6.9924 C   0  0  0  0  0  4           0  0  0
    5.9172   -0.3656    8.2464 C   0  0  0  0  0  4           0  0  0
    5.5476    1.3409    4.2651 C   0  0  0  0  0  4           0  0  0
   -2.9060    1.4701   -5.4756 C   0  0  0  0  0  4           0  0  0
   -6.0189   -0.2100   -9.8254 C   0  0  0  0  0  4           0  0  0
    0.0513   -1.0871   -5.4554 C   0  0  0  0  0  4           0  0  0
    7.3787   -4.4668    6.2710 C   0  0  0  0  0  4           0  0  0
   -6.6622   -0.0817   -8.4511 C   0  0  2  0  0  4           0  0  0
   -4.8556    0.7492   -6.9810 C   0  0  0  0  0  4           0  0  0
   -7.1829    1.2542   -6.6177 C   0  0  0  0  0  4           0  0  0
    5.5192    1.6369    2.7829 C   0  0  0  0  0  4           0  0  0
   -4.2411    1.8485   -6.1041 C   0  0  0  0  0  4           0  0  0
   -8.1635    0.2306   -8.5602 C   0  0  0  0  0  4           0  0  0
   -8.4622    1.2029   -7.4286 C   0  0  0  0  0  4           0  0  0
  1 13  1  0     0  0
  1 14  1  0     0  0
  2 15  1  0     0  0
  2 31  1  0     0  0
  3 16  1  0     0  0
  3 33  1  0     0  0
  4 17  1  0     0  0
  4 34  1  0     0  0
  5 30  2  0     0  0
  6 32  1  0     0  0
  7 13  2  0     0  0
  7 21  1  0     0  0
  8 18  1  0     0  0
  8 19  2  0     0  0
  9 18  2  0     0  0
  9 20  1  0     0  0
 10 13  1  0     0  0
 10 19  1  0     0  0
 11 22  1  0     0  0
 11 30  1  0     0  0
 12 35  1  0     0  0
 12 36  1  0     0  0
 12 37  1  0     0  0
 14 21  2  0     0  0
 14 38  1  0     0  0
 15 16  2  0     0  0
 15 24  1  0     0  0
 16 26  1  0     0  0
 17 25  1  0     0  0
 17 27  2  0     0  0
 19 23  1  0     0  0
 20 23  1  0     0  0
 20 24  2  0     0  0
 22 25  2  0     0  0
 22 28  1  0     0  0
 23 26  2  0     0  0
 27 29  1  0     0  0
 28 29  2  0     0  0
 30 38  1  0     0  0
 31 39  1  0     0  0
 32 35  1  0     0  0
 35 40  1  0     0  0
 36 39  1  0     0  0
 37 41  1  0     0  0
 40 41  1  0     0  0
M  END
> <standard_type>
pIC50

> <# Confs.>
25

> <canonical_smiles>
COC1=CC=CC(NC(CC2=CN=C(NC3=NC=NC4=CC(OCCCN5[C@H](CO)CCC5)=C(OC)C=C43)S2)=O)=C1

> <standard_relation>
=

> <Publication_ID>
Wang_2009

> <predicted_activity_value>
7.795880017344075

> <actual_activity_value>
8.301029995663981

> <Compound>
21

> <standard_units>
nM

> hash
12533943428153564438

$$$$
21_
XXILIB    08252103423D 0   0.00000     0.00000

 41 45  0     1  0            999 V2000
    3.9963    0.4445    0.7698 S   0  0  0  0  0  2           0  0  0
   -3.0942    0.3197   -4.6508 O   0  0  0  0  0  2           0  0  0
   -0.1879    0.1859   -4.8603 O   0  0  0  0  0  2           0  0  0
    9.1318    4.5543   -2.7909 O   0  0  0  0  0  2           0  0  0
    5.7133    4.0275    2.8335 O   0  0  0  0  0  2           0  0  0
   -5.3171   -3.1108   -9.1615 O   0  0  0  0  0  2           0  0  0
    1.8580    1.1559    2.0031 N   0  0  0  0  0  3           0  0  0
   -0.6593    0.0000    1.1855 N   0  0  0  0  0  3           0  0  0
   -2.7581    0.0616    0.0284 N   0  0  0  0  0  3           0  0  0
    1.4139   -0.0000   -0.0000 N   0  0  0  0  0  3           0  0  0
    6.6688    2.8722    1.0569 N   0  0  0  0  0  3           0  0  0
   -4.0886    0.2856   -8.1391 N   0  0  2  0  0  3           0  0  0
    2.2657    0.5284    0.9152 C   0  0  0  0  0  4           0  0  0
    4.1784    1.3079    2.2351 C   0  0  0  0  0  4           0  0  0
   -2.2587    0.2233   -3.5748 C   0  0  0  0  0  4           0  0  0
   -0.8715    0.1581   -3.6779 C   0  0  0  0  0  4           0  0  0
    8.4488    4.7065   -1.6177 C   0  0  0  0  0  4           0  0  0
   -1.9982    0.0239    1.1322 C   0  0  0  0  0  4           0  0  0
    0.0000   -0.0000    0.0000 C   0  0  0  0  0  4           0  0  0
   -2.1124    0.0884   -1.1443 C   0  0  0  0  0  4           0  0  0
    2.9328    1.5931    2.7491 C   0  0  0  0  0  4           0  0  0
    7.2073    3.9516    0.3317 C   0  0  0  0  0  4           0  0  0
   -0.7049    0.0650   -1.2299 C   0  0  0  0  0  4           0  0  0
   -2.8616    0.1571   -2.3157 C   0  0  0  0  0  4           0  0  0
    7.8896    3.6697   -0.8615 C   0  0  0  0  0  4           0  0  0
   -0.1027    0.1096   -2.5130 C   0  0  0  0  0  4           0  0  0
    8.3197    6.0258   -1.1741 C   0  0  0  0  0  4           0  0  0
    7.0837    5.2766    0.7644 C   0  0  0  0  0  4           0  0  0
    7.6414    6.3093    0.0108 C   0  0  0  0  0  4           0  0  0
    5.9706    2.9767    2.2472 C   0  0  0  0  0  4           0  0  0
   -2.9060    1.4701   -5.4756 C   0  0  0  0  0  4           0  0  0
   -4.6529   -2.1673   -8.3289 C   0  0  0  0  0  4           0  0  0
    0.0513   -1.0871   -5.4554 C   0  0  0  0  0  4           0  0  0
    9.2637    3.2109   -3.2488 C   0  0  0  0  0  4           0  0  0
   -4.7482   -0.7708   -8.9286 C   0  0  2  0  0  4           0  0  0
   -4.8556    0.7492   -6.9810 C   0  0  0  0  0  4           0  0  0
   -3.8854    1.3845   -9.0923 C   0  0  0  0  0  4           0  0  0
    5.5192    1.6369    2.7829 C   0  0  0  0  0  4           0  0  0
   -4.2411    1.8485   -6.1041 C   0  0  0  0  0  4           0  0  0
   -4.0395   -0.6945  -10.2907 C   0  0  0  0  0  4           0  0  0
   -3.3761    0.6742  -10.3305 C   0  0  0  0  0  4           0  0  0
  1 13  1  0     0  0
  1 14  1  0     0  0
  2 15  1  0     0  0
  2 31  1  0     0  0
  3 16  1  0     0  0
  3 33  1  0     0  0
  4 17  1  0     0  0
  4 34  1  0     0  0
  5 30  2  0     0  0
  6 32  1  0     0  0
  7 13  2  0     0  0
  7 21  1  0     0  0
  8 18  1  0     0  0
  8 19  2  0     0  0
  9 18  2  0     0  0
  9 20  1  0     0  0
 10 13  1  0     0  0
 10 19  1  0     0  0
 11 22  1  0     0  0
 11 30  1  0     0  0
 12 35  1  0     0  0
 12 36  1  0     0  0
 12 37  1  0     0  0
 14 21  2  0     0  0
 14 38  1  0     0  0
 15 16  2  0     0  0
 15 24  1  0     0  0
 16 26  1  0     0  0
 17 25  1  0     0  0
 17 27  2  0     0  0
 19 23  1  0     0  0
 20 23  1  0     0  0
 20 24  2  0     0  0
 22 25  2  0     0  0
 22 28  1  0     0  0
 23 26  2  0     0  0
 27 29  1  0     0  0
 28 29  2  0     0  0
 30 38  1  0     0  0
 31 39  1  0     0  0
 32 35  1  0     0  0
 35 40  1  0     0  0
 36 39  1  0     0  0
 37 41  1  0     0  0
 40 41  1  0     0  0
M  END
> <standard_type>
pIC50

> <# Confs.>
25

> <canonical_smiles>
COC1=CC=CC(NC(CC2=CN=C(NC3=NC=NC4=CC(OCCCN5[C@H](CO)CCC5)=C(OC)C=C43)S2)=O)=C1

> <standard_relation>
=

> <Publication_ID>
Wang_2009

> <predicted_activity_value>
7.795880017344075

> <actual_activity_value>
8.301029995663981

> <Compound>
21

> <standard_units>
nM

> hash
12533943428153564438

$$$$
21_
XXILIB    08252103423D 0   0.00000     0.00000

 41 45  0     1  0            999 V2000
    3.9963    0.4445    0.7698 S   0  0  0  0  0  2           0  0  0
   -3.0942    0.3197   -4.6508 O   0  0  0  0  0  2           0  0  0
   -0.1879    0.1859   -4.8603 O   0  0  0  0  0  2           0  0  0
    6.9295    8.3200    0.3380 O   0  0  0  0  0  2           0  0  0
    5.2323    3.3926    4.3924 O   0  0  0  0  0  2           0  0  0
   -5.3171   -3.1108   -9.1615 O   0  0  0  0  0  2           0  0  0
    1.8580    1.1559    2.0031 N   0  0  0  0  0  3           0  0  0
   -0.6593    0.0000    1.1855 N   0  0  0  0  0  3           0  0  0
   -2.7581    0.0616    0.0284 N   0  0  0  0  0  3           0  0  0
    1.4139    0.0000   -0.0000 N   0  0  0  0  0  3           0  0  0
    5.9180    3.9557    2.2437 N   0  0  0  0  0  3           0  0  0
   -4.0886    0.2856   -8.1391 N   0  0  2  0  0  3           0  0  0
    2.2657    0.5284    0.9152 C   0  0  0  0  0  4           0  0  0
    4.1784    1.3079    2.2351 C   0  0  0  0  0  4           0  0  0
   -2.2587    0.2233   -3.5748 C   0  0  0  0  0  4           0  0  0
   -0.8715    0.1581   -3.6779 C   0  0  0  0  0  4           0  0  0
    6.5509    7.4908    1.3555 C   0  0  0  0  0  4           0  0  0
   -1.9982    0.0239    1.1322 C   0  0  0  0  0  4           0  0  0
    0.0000   -0.0000    0.0000 C   0  0  0  0  0  4           0  0  0
   -2.1124    0.0884   -1.1443 C   0  0  0  0  0  4           0  0  0
    2.9328    1.5931    2.7491 C   0  0  0  0  0  4           0  0  0
    6.0248    5.3520    2.3851 C   0  0  0  0  0  4           0  0  0
   -0.7049    0.0650   -1.2299 C   0  0  0  0  0  4           0  0  0
   -2.8616    0.1571   -2.3157 C   0  0  0  0  0  4           0  0  0
    6.4238    6.0996    1.2668 C   0  0  0  0  0  4           0  0  0
   -0.1027    0.1096   -2.5130 C   0  0  0  0  0  4           0  0  0
    6.2748    8.1289    2.5682 C   0  0  0  0  0  4           0  0  0
    5.7500    6.0027    3.5930 C   0  0  0  0  0  4           0  0  0
    5.8771    7.3888    3.6811 C   0  0  0  0  0  4           0  0  0
    5.5391    3.0768    3.2433 C   0  0  0  0  0  4           0  0  0
   -2.9060    1.4701   -5.4756 C   0  0  0  0  0  4           0  0  0
   -4.6529   -2.1673   -8.3289 C   0  0  0  0  0  4           0  0  0
    0.0513   -1.0871   -5.4554 C   0  0  0  0  0  4           0  0  0
    7.2095    7.6742   -0.9015 C   0  0  0  0  0  4           0  0  0
   -4.7482   -0.7708   -8.9286 C   0  0  2  0  0  4           0  0  0
   -4.8556    0.7492   -6.9810 C   0  0  0  0  0  4           0  0  0
   -3.8854    1.3845   -9.0923 C   0  0  0  0  0  4           0  0  0
    5.5192    1.6369    2.7829 C   0  0  0  0  0  4           0  0  0
   -4.2411    1.8485   -6.1041 C   0  0  0  0  0  4           0  0  0
   -4.0395   -0.6945  -10.2907 C   0  0  0  0  0  4           0  0  0
   -3.3761    0.6742  -10.3305 C   0  0  0  0  0  4           0  0  0
  1 13  1  0     0  0
  1 14  1  0     0  0
  2 15  1  0     0  0
  2 31  1  0     0  0
  3 16  1  0     0  0
  3 33  1  0     0  0
  4 17  1  0     0  0
  4 34  1  0     0  0
  5 30  2  0     0  0
  6 32  1  0     0  0
  7 13  2  0     0  0
  7 21  1  0     0  0
  8 18  1  0     0  0
  8 19  2  0     0  0
  9 18  2  0     0  0
  9 20  1  0     0  0
 10 13  1  0     0  0
 10 19  1  0     0  0
 11 22  1  0     0  0
 11 30  1  0     0  0
 12 35  1  0     0  0
 12 36  1  0     0  0
 12 37  1  0     0  0
 14 21  2  0     0  0
 14 38  1  0     0  0
 15 16  2  0     0  0
 15 24  1  0     0  0
 16 26  1  0     0  0
 17 25  1  0     0  0
 17 27  2  0     0  0
 19 23  1  0     0  0
 20 23  1  0     0  0
 20 24  2  0     0  0
 22 25  2  0     0  0
 22 28  1  0     0  0
 23 26  2  0     0  0
 27 29  1  0     0  0
 28 29  2  0     0  0
 30 38  1  0     0  0
 31 39  1  0     0  0
 32 35  1  0     0  0
 35 40  1  0     0  0
 36 39  1  0     0  0
 37 41  1  0     0  0
 40 41  1  0     0  0
M  END
> <standard_type>
pIC50

> <# Confs.>
25

> <canonical_smiles>
COC1=CC=CC(NC(CC2=CN=C(NC3=NC=NC4=CC(OCCCN5[C@H](CO)CCC5)=C(OC)C=C43)S2)=O)=C1

> <standard_relation>
=

> <Publication_ID>
Wang_2009

> <predicted_activity_value>
7.795880017344075

> <actual_activity_value>
8.301029995663981

> <Compound>
21

> <standard_units>
nM

> hash
12533943428153564438

$$$$
21_
XXILIB    08252103423D 0   0.00000     0.00000

 41 45  0     1  0            999 V2000
    3.9963    0.4445    0.7698 S   0  0  0  0  0  2           0  0  0
   -3.0942    0.3197   -4.6508 O   0  0  0  0  0  2           0  0  0
   -0.1879    0.1859   -4.8603 O   0  0  0  0  0  2           0  0  0
    5.2743    8.7137    4.3606 O   0  0  0  0  0  2           0  0  0
    6.6141    3.0719    1.2026 O   0  0  0  0  0  2           0  0  0
   -2.5516    6.6266   -9.1728 O   0  0  0  0  0  2           0  0  0
    1.8580    1.1559    2.0031 N   0  0  0  0  0  3           0  0  0
   -0.6593    0.0000    1.1855 N   0  0  0  0  0  3           0  0  0
   -2.7581    0.0616    0.0284 N   0  0  0  0  0  3           0  0  0
    1.4139   -0.0000   -0.0000 N   0  0  0  0  0  3           0  0  0
    5.5936    4.0340    3.0565 N   0  0  0  0  0  3           0  0  0
   -3.7387    4.3474   -6.4367 N   0  0  2  0  0  3           0  0  0
    2.2657    0.5284    0.9152 C   0  0  0  0  0  4           0  0  0
    4.1784    1.3079    2.2351 C   0  0  0  0  0  4           0  0  0
   -2.2587    0.2233   -3.5748 C   0  0  0  0  0  4           0  0  0
   -0.8715    0.1581   -3.6779 C   0  0  0  0  0  4           0  0  0
    5.6678    7.7023    3.5309 C   0  0  0  0  0  4           0  0  0
   -1.9982    0.0239    1.1322 C   0  0  0  0  0  4           0  0  0
    0.0000    0.0000    0.0000 C   0  0  0  0  0  4           0  0  0
   -2.1124    0.0884   -1.1443 C   0  0  0  0  0  4           0  0  0
    2.9328    1.5931    2.7491 C   0  0  0  0  0  4           0  0  0
    5.8759    5.3903    2.8078 C   0  0  0  0  0  4           0  0  0
   -0.7049    0.0650   -1.2299 C   0  0  0  0  0  4           0  0  0
   -2.8616    0.1571   -2.3157 C   0  0  0  0  0  4           0  0  0
    5.4185    6.3398    3.7340 C   0  0  0  0  0  4           0  0  0
   -0.1027    0.1096   -2.5130 C   0  0  0  0  0  4           0  0  0
    6.3782    8.1082    2.3976 C   0  0  0  0  0  4           0  0  0
    6.5870    5.8092    1.6779 C   0  0  0  0  0  4           0  0  0
    6.8348    7.1668    1.4756 C   0  0  0  0  0  4           0  0  0
    5.9706    2.9767    2.2472 C   0  0  0  0  0  4           0  0  0
   -2.9060    1.4701   -5.4756 C   0  0  0  0  0  4           0  0  0
   -2.4913    5.5026   -8.3023 C   0  0  0  0  0  4           0  0  0
    0.0513   -1.0871   -5.4554 C   0  0  0  0  0  4           0  0  0
    4.5518    8.3045    5.5193 C   0  0  0  0  0  4           0  0  0
   -3.7048    5.4781   -7.3826 C   0  0  2  0  0  4           0  0  0
   -4.1770    3.0778   -7.0205 C   0  0  0  0  0  4           0  0  0
   -4.6697    4.7759   -5.3844 C   0  0  0  0  0  4           0  0  0
    5.5192    1.6369    2.7829 C   0  0  0  0  0  4           0  0  0
   -4.2411    1.8485   -6.1041 C   0  0  0  0  0  4           0  0  0
   -3.7406    6.7120   -6.4664 C   0  0  0  0  0  4           0  0  0
   -4.2570    6.2110   -5.1257 C   0  0  0  0  0  4           0  0  0
  1 13  1  0     0  0
  1 14  1  0     0  0
  2 15  1  0     0  0
  2 31  1  0     0  0
  3 16  1  0     0  0
  3 33  1  0     0  0
  4 17  1  0     0  0
  4 34  1  0     0  0
  5 30  2  0     0  0
  6 32  1  0     0  0
  7 13  2  0     0  0
  7 21  1  0     0  0
  8 18  1  0     0  0
  8 19  2  0     0  0
  9 18  2  0     0  0
  9 20  1  0     0  0
 10 13  1  0     0  0
 10 19  1  0     0  0
 11 22  1  0     0  0
 11 30  1  0     0  0
 12 35  1  0     0  0
 12 36  1  0     0  0
 12 37  1  0     0  0
 14 21  2  0     0  0
 14 38  1  0     0  0
 15 16  2  0     0  0
 15 24  1  0     0  0
 16 26  1  0     0  0
 17 25  1  0     0  0
 17 27  2  0     0  0
 19 23  1  0     0  0
 20 23  1  0     0  0
 20 24  2  0     0  0
 22 25  2  0     0  0
 22 28  1  0     0  0
 23 26  2  0     0  0
 27 29  1  0     0  0
 28 29  2  0     0  0
 30 38  1  0     0  0
 31 39  1  0     0  0
 32 35  1  0     0  0
 35 40  1  0     0  0
 36 39  1  0     0  0
 37 41  1  0     0  0
 40 41  1  0     0  0
M  END
> <standard_type>
pIC50

> <# Confs.>
25

> <canonical_smiles>
COC1=CC=CC(NC(CC2=CN=C(NC3=NC=NC4=CC(OCCCN5[C@H](CO)CCC5)=C(OC)C=C43)S2)=O)=C1

> <standard_relation>
=

> <Publication_ID>
Wang_2009

> <predicted_activity_value>
7.795880017344075

> <actual_activity_value>
8.301029995663981

> <Compound>
21

> <standard_units>
nM

> hash
12533943428153564438

$$$$
21_
XXILIB    08252103423D 0   0.00000     0.00000

 41 45  0     1  0            999 V2000
    3.9963    0.4445    0.7698 S   0  0  0  0  0  2           0  0  0
   -3.0942    0.3197   -4.6508 O   0  0  0  0  0  2           0  0  0
   -0.1879    0.1859   -4.8603 O   0  0  0  0  0  2           0  0  0
    6.9295    8.3200    0.3380 O   0  0  0  0  0  2           0  0  0
    5.2323    3.3926    4.3924 O   0  0  0  0  0  2           0  0  0
   -6.5881   -1.3014  -10.5392 O   0  0  0  0  0  2           0  0  0
    1.8580    1.1559    2.0031 N   0  0  0  0  0  3           0  0  0
   -0.6593    0.0000    1.1855 N   0  0  0  0  0  3           0  0  0
   -2.7581    0.0616    0.0284 N   0  0  0  0  0  3           0  0  0
    1.4139    0.0000   -0.0000 N   0  0  0  0  0  3           0  0  0
    5.9180    3.9557    2.2437 N   0  0  0  0  0  3           0  0  0
   -6.1407    1.0244   -7.6271 N   0  0  2  0  0  3           0  0  0
    2.2657    0.5284    0.9152 C   0  0  0  0  0  4           0  0  0
    4.1784    1.3079    2.2351 C   0  0  0  0  0  4           0  0  0
   -2.2587    0.2233   -3.5748 C   0  0  0  0  0  4           0  0  0
   -0.8715    0.1581   -3.6779 C   0  0  0  0  0  4           0  0  0
    6.5509    7.4908    1.3555 C   0  0  0  0  0  4           0  0  0
   -1.9982    0.0239    1.1322 C   0  0  0  0  0  4           0  0  0
    0.0000   -0.0000    0.0000 C   0  0  0  0  0  4           0  0  0
   -2.1124    0.0884   -1.1443 C   0  0  0  0  0  4           0  0  0
    2.9328    1.5931    2.7491 C   0  0  0  0  0  4           0  0  0
    6.0248    5.3520    2.3851 C   0  0  0  0  0  4           0  0  0
   -0.7049    0.0650   -1.2299 C   0  0  0  0  0  4           0  0  0
   -2.8616    0.1571   -2.3157 C   0  0  0  0  0  4           0  0  0
    6.4238    6.0996    1.2668 C   0  0  0  0  0  4           0  0  0
   -0.1027    0.1096   -2.5130 C   0  0  0  0  0  4           0  0  0
    6.2748    8.1289    2.5682 C   0  0  0  0  0  4           0  0  0
    5.7500    6.0027    3.5930 C   0  0  0  0  0  4           0  0  0
    5.8771    7.3888    3.6811 C   0  0  0  0  0  4           0  0  0
    5.5391    3.0768    3.2433 C   0  0  0  0  0  4           0  0  0
   -2.9060    1.4701   -5.4756 C   0  0  0  0  0  4           0  0  0
   -6.0189   -0.2100   -9.8254 C   0  0  0  0  0  4           0  0  0
    0.0513   -1.0871   -5.4554 C   0  0  0  0  0  4           0  0  0
    7.2095    7.6742   -0.9015 C   0  0  0  0  0  4           0  0  0
   -6.6622   -0.0817   -8.4511 C   0  0  2  0  0  4           0  0  0
   -4.8556    0.7492   -6.9810 C   0  0  0  0  0  4           0  0  0
   -7.1829    1.2542   -6.6177 C   0  0  0  0  0  4           0  0  0
    5.5192    1.6369    2.7829 C   0  0  0  0  0  4           0  0  0
   -4.2411    1.8485   -6.1041 C   0  0  0  0  0  4           0  0  0
   -8.1635    0.2306   -8.5602 C   0  0  0  0  0  4           0  0  0
   -8.4622    1.2029   -7.4286 C   0  0  0  0  0  4           0  0  0
  1 13  1  0     0  0
  1 14  1  0     0  0
  2 15  1  0     0  0
  2 31  1  0     0  0
  3 16  1  0     0  0
  3 33  1  0     0  0
  4 17  1  0     0  0
  4 34  1  0     0  0
  5 30  2  0     0  0
  6 32  1  0     0  0
  7 13  2  0     0  0
  7 21  1  0     0  0
  8 18  1  0     0  0
  8 19  2  0     0  0
  9 18  2  0     0  0
  9 20  1  0     0  0
 10 13  1  0     0  0
 10 19  1  0     0  0
 11 22  1  0     0  0
 11 30  1  0     0  0
 12 35  1  0     0  0
 12 36  1  0     0  0
 12 37  1  0     0  0
 14 21  2  0     0  0
 14 38  1  0     0  0
 15 16  2  0     0  0
 15 24  1  0     0  0
 16 26  1  0     0  0
 17 25  1  0     0  0
 17 27  2  0     0  0
 19 23  1  0     0  0
 20 23  1  0     0  0
 20 24  2  0     0  0
 22 25  2  0     0  0
 22 28  1  0     0  0
 23 26  2  0     0  0
 27 29  1  0     0  0
 28 29  2  0     0  0
 30 38  1  0     0  0
 31 39  1  0     0  0
 32 35  1  0     0  0
 35 40  1  0     0  0
 36 39  1  0     0  0
 37 41  1  0     0  0
 40 41  1  0     0  0
M  END
> <standard_type>
pIC50

> <# Confs.>
25

> <canonical_smiles>
COC1=CC=CC(NC(CC2=CN=C(NC3=NC=NC4=CC(OCCCN5[C@H](CO)CCC5)=C(OC)C=C43)S2)=O)=C1

> <standard_relation>
=

> <Publication_ID>
Wang_2009

> <predicted_activity_value>
7.795880017344075

> <actual_activity_value>
8.301029995663981

> <Compound>
21

> <standard_units>
nM

> hash
12533943428153564438

$$$$
29_
XXILIB    08252103423D 0   0.00000     0.00000

 43 47  0     1  0            999 V2000
    6.6385   -3.2853    9.2191 O   0  0  0  0  0  2           0  0  0
   -2.9823    0.2903   -4.7493 O   0  0  0  0  0  2           0  0  0
   -0.2536    0.2091   -4.8645 O   0  0  0  0  0  2           0  0  0
    5.4843    2.4149    4.4669 O   0  0  0  0  0  2           0  0  0
   -8.6533    6.5456   -4.5931 O   0  0  0  0  0  2           0  0  0
    6.6600   -3.9408    7.1118 O   0  5  0  0  0  1           0  0  0
    3.1007    1.4995    2.6096 N   0  0  0  0  0  3           0  0  0
    1.9217    1.1854    2.0532 N   0  0  0  0  0  3           0  0  0
   -0.6505    0.0000    1.1896 N   0  0  0  0  0  3           0  0  0
   -2.7555    0.0700    0.0433 N   0  0  0  0  0  3           0  0  0
    6.5537   -3.0865    8.0006 N   0  3  0  0  0  4           0  0  0
    1.4152   -0.0000    0.0000 N   0  0  0  0  0  3           0  0  0
    5.8664    0.1202    4.4201 N   0  0  0  0  0  3           0  0  0
   -7.0451    1.6625   -5.2793 N   0  0  1  0  0  3           0  0  0
   -2.2944    0.1932   -3.5735 C   0  0  0  0  0  4           0  0  0
   -0.9040    0.1447   -3.6647 C   0  0  0  0  0  4           0  0  0
   -1.9894    0.0286    1.1432 C   0  0  0  0  0  4           0  0  0
    2.2530    0.5351    0.9268 C   0  0  0  0  0  4           0  0  0
    0.0000    0.0000    0.0000 C   0  0  0  0  0  4           0  0  0
   -2.1184    0.0916   -1.1344 C   0  0  0  0  0  4           0  0  0
    4.1863    1.0763    1.8965 C   0  0  0  0  0  4           0  0  0
    6.3092   -1.7353    7.5771 C   0  0  0  0  0  4           0  0  0
    5.9629   -0.1369    5.8007 C   0  0  0  0  0  4           0  0  0
   -0.7118    0.0629   -1.2259 C   0  0  0  0  0  4           0  0  0
   -2.8799    0.1573   -2.3026 C   0  0  0  0  0  4           0  0  0
   -0.1198    0.1040   -2.5106 C   0  0  0  0  0  4           0  0  0
    3.6643    0.4511    0.7869 C   0  0  0  0  0  4           0  0  0
    6.2048   -1.4534    6.2111 C   0  0  0  0  0  4           0  0  0
    6.1792   -0.7321    8.5391 C   0  0  0  0  0  4           0  0  0
    5.8287    0.8756    6.7606 C   0  0  0  0  0  4           0  0  0
    5.9377    0.5758    8.1217 C   0  0  0  0  0  4           0  0  0
    5.6313    1.3616    3.8481 C   0  0  0  0  0  4           0  0  0
   -4.4044    0.3382   -4.6278 C   0  0  0  0  0  4           0  0  0
   -9.0670    5.2935   -4.0617 C   0  0  0  0  0  4           0  0  0
   -0.0147   -1.0460   -5.4962 C   0  0  0  0  0  4           0  0  0
   -6.5457    0.5051   -6.0267 C   0  0  0  0  0  4           0  0  0
   -6.5541    2.9265   -5.8520 C   0  0  0  0  0  4           0  0  0
   -8.5159    1.6437   -5.2463 C   0  0  0  0  0  4           0  0  0
    5.5822    1.3146    2.3376 C   0  0  0  0  0  4           0  0  0
   -8.5763    4.1526   -4.9433 C   0  0  1  0  0  4           0  0  0
   -5.0172    0.4453   -6.0183 C   0  0  0  0  0  4           0  0  0
   -7.0455    4.1342   -5.0497 C   0  0  0  0  0  4           0  0  0
   -9.0712    2.8024   -4.4167 C   0  0  0  0  0  4           0  0  0
  1 11  2  0     0  0
  2 15  1  0     0  0
  2 33  1  0     0  0
  3 16  1  0     0  0
  3 35  1  0     0  0
  4 32  2  0     0  0
  5 34  1  0     0  0
  6 11  1  0     0  0
  7  8  1  0     0  0
  7 21  1  0     0  0
  8 18  2  0     0  0
  9 17  1  0     0  0
  9 19  2  0     0  0
 10 17  2  0     0  0
 10 20  1  0     0  0
 11 22  1  0     0  0
 12 18  1  0     0  0
 12 19  1  0     0  0
 13 23  1  0     0  0
 13 32  1  0     0  0
 14 36  1  0     0  0
 14 37  1  0     0  0
 14 38  1  0     0  0
 15 16  1  0     0  0
 15 25  2  0     0  0
 16 26  2  0     0  0
 18 27  1  0     0  0
 19 24  1  0     0  0
 20 24  2  0     0  0
 20 25  1  0     0  0
 21 27  2  0     0  0
 21 39  1  0     0  0
 22 28  1  0     0  0
 22 29  2  0     0  0
 23 28  2  0     0  0
 23 30  1  0     0  0
 24 26  1  0     0  0
 29 31  1  0     0  0
 30 31  2  0     0  0
 32 39  1  0     0  0
 33 41  1  0     0  0
 34 40  1  0     0  0
 36 41  1  0     0  0
 37 42  1  0     0  0
 38 43  1  0     0  0
 40 42  1  0     0  0
 40 43  1  0     0  0
M  CHG  2   6  -1  11   1
M  END
> <standard_type>
pIC50

> <# Confs.>
25

> <canonical_smiles>
O=C(CC1=CC(NC2=NC=NC3=C2C=C(OC)C(OCCCN4CCC(CO)CC4)=C3)=NN1)NC5=CC([N+]([O-])=O)=CC=C5

> <standard_relation>
=

> <Publication_ID>
nan

> <predicted_activity_value>
7.795880017344075

> <actual_activity_value>
7.4089353929735005

> <Compound>
29

> <standard_units>
nM

> hash
6972764257274872620

$$$$
29_
XXILIB    08252103423D 0   0.00000     0.00000

 43 47  0     1  0            999 V2000
    9.3357   -6.1371    2.2244 O   0  0  0  0  0  2           0  0  0
   -2.9823    0.2903   -4.7493 O   0  0  0  0  0  2           0  0  0
   -0.2536    0.2091   -4.8645 O   0  0  0  0  0  2           0  0  0
    5.8840    0.1618    4.4194 O   0  0  0  0  0  2           0  0  0
   -8.6533    6.5456   -4.5931 O   0  0  0  0  0  2           0  0  0
    8.8871   -4.7989    0.5276 O   0  5  0  0  0  1           0  0  0
    3.1007    1.4995    2.6096 N   0  0  0  0  0  3           0  0  0
    1.9217    1.1854    2.0532 N   0  0  0  0  0  3           0  0  0
   -0.6505    0.0000    1.1896 N   0  0  0  0  0  3           0  0  0
   -2.7555    0.0700    0.0433 N   0  0  0  0  0  3           0  0  0
    8.8795   -5.0993    1.7280 N   0  3  0  0  0  4           0  0  0
    1.4152   -0.0000   -0.0000 N   0  0  0  0  0  3           0  0  0
    6.6487   -0.8508    2.4691 N   0  0  0  0  0  3           0  0  0
   -7.0451    1.6625   -5.2793 N   0  0  1  0  0  3           0  0  0
   -2.2944    0.1932   -3.5735 C   0  0  0  0  0  4           0  0  0
   -0.9040    0.1447   -3.6647 C   0  0  0  0  0  4           0  0  0
   -1.9894    0.0286    1.1432 C   0  0  0  0  0  4           0  0  0
    2.2530    0.5351    0.9268 C   0  0  0  0  0  4           0  0  0
    0.0000    0.0000    0.0000 C   0  0  0  0  0  4           0  0  0
   -2.1184    0.0916   -1.1344 C   0  0  0  0  0  4           0  0  0
    4.1863    1.0763    1.8965 C   0  0  0  0  0  4           0  0  0
    8.2850   -4.1527    2.6309 C   0  0  0  0  0  4           0  0  0
    7.1718   -2.0428    3.0049 C   0  0  0  0  0  4           0  0  0
   -0.7118    0.0629   -1.2259 C   0  0  0  0  0  4           0  0  0
   -2.8799    0.1573   -2.3026 C   0  0  0  0  0  4           0  0  0
   -0.1198    0.1040   -2.5106 C   0  0  0  0  0  4           0  0  0
    3.6643    0.4511    0.7869 C   0  0  0  0  0  4           0  0  0
    7.7539   -2.9621    2.1239 C   0  0  0  0  0  4           0  0  0
    8.2484   -4.4425    3.9960 C   0  0  0  0  0  4           0  0  0
    7.1290   -2.3276    4.3766 C   0  0  0  0  0  4           0  0  0
    7.6662   -3.5220    4.8659 C   0  0  0  0  0  4           0  0  0
    6.0416    0.1601    3.1991 C   0  0  0  0  0  4           0  0  0
   -4.4044    0.3382   -4.6278 C   0  0  0  0  0  4           0  0  0
   -9.0670    5.2935   -4.0617 C   0  0  0  0  0  4           0  0  0
    0.0875    1.5217   -5.3029 C   0  0  0  0  0  4           0  0  0
   -6.5457    0.5051   -6.0267 C   0  0  0  0  0  4           0  0  0
   -6.5541    2.9265   -5.8520 C   0  0  0  0  0  4           0  0  0
   -8.5159    1.6437   -5.2463 C   0  0  0  0  0  4           0  0  0
    5.5822    1.3146    2.3376 C   0  0  0  0  0  4           0  0  0
   -8.5763    4.1526   -4.9433 C   0  0  1  0  0  4           0  0  0
   -5.0172    0.4453   -6.0183 C   0  0  0  0  0  4           0  0  0
   -7.0455    4.1342   -5.0497 C   0  0  0  0  0  4           0  0  0
   -9.0712    2.8024   -4.4167 C   0  0  0  0  0  4           0  0  0
  1 11  2  0     0  0
  2 15  1  0     0  0
  2 33  1  0     0  0
  3 16  1  0     0  0
  3 35  1  0     0  0
  4 32  2  0     0  0
  5 34  1  0     0  0
  6 11  1  0     0  0
  7  8  1  0     0  0
  7 21  1  0     0  0
  8 18  2  0     0  0
  9 17  1  0     0  0
  9 19  2  0     0  0
 10 17  2  0     0  0
 10 20  1  0     0  0
 11 22  1  0     0  0
 12 18  1  0     0  0
 12 19  1  0     0  0
 13 23  1  0     0  0
 13 32  1  0     0  0
 14 36  1  0     0  0
 14 37  1  0     0  0
 14 38  1  0     0  0
 15 16  1  0     0  0
 15 25  2  0     0  0
 16 26  2  0     0  0
 18 27  1  0     0  0
 19 24  1  0     0  0
 20 24  2  0     0  0
 20 25  1  0     0  0
 21 27  2  0     0  0
 21 39  1  0     0  0
 22 28  1  0     0  0
 22 29  2  0     0  0
 23 28  2  0     0  0
 23 30  1  0     0  0
 24 26  1  0     0  0
 29 31  1  0     0  0
 30 31  2  0     0  0
 32 39  1  0     0  0
 33 41  1  0     0  0
 34 40  1  0     0  0
 36 41  1  0     0  0
 37 42  1  0     0  0
 38 43  1  0     0  0
 40 42  1  0     0  0
 40 43  1  0     0  0
M  CHG  2   6  -1  11   1
M  END
> <standard_type>
pIC50

> <# Confs.>
25

> <canonical_smiles>
O=C(CC1=CC(NC2=NC=NC3=C2C=C(OC)C(OCCCN4CCC(CO)CC4)=C3)=NN1)NC5=CC([N+]([O-])=O)=CC=C5

> <standard_relation>
=

> <Publication_ID>
nan

> <predicted_activity_value>
7.795880017344075

> <actual_activity_value>
7.4089353929735005

> <Compound>
29

> <standard_units>
nM

> hash
6972764257274872620

$$$$
29_
XXILIB    08252103423D 0   0.00000     0.00000

 43 47  0     1  0            999 V2000
    9.3660    4.9035   -4.1764 O   0  0  0  0  0  2           0  0  0
   -2.9823    0.2903   -4.7493 O   0  0  0  0  0  2           0  0  0
   -0.2536    0.2091   -4.8645 O   0  0  0  0  0  2           0  0  0
    5.9240    3.6884    2.3874 O   0  0  0  0  0  2           0  0  0
   -8.6533    6.5456   -4.5931 O   0  0  0  0  0  2           0  0  0
    8.8872    2.7710   -3.8696 O   0  5  0  0  0  1           0  0  0
    3.1007    1.4995    2.6096 N   0  0  0  0  0  3           0  0  0
    1.9217    1.1854    2.0532 N   0  0  0  0  0  3           0  0  0
   -0.6505    0.0000    1.1896 N   0  0  0  0  0  3           0  0  0
   -2.7555    0.0700    0.0433 N   0  0  0  0  0  3           0  0  0
    8.8993    3.9596   -3.5261 N   0  3  0  0  0  4           0  0  0
    1.4152   -0.0000    0.0000 N   0  0  0  0  0  3           0  0  0
    6.6640    2.4994    0.5293 N   0  0  0  0  0  3           0  0  0
   -7.0451    1.6625   -5.2793 N   0  0  1  0  0  3           0  0  0
   -2.2944    0.1932   -3.5735 C   0  0  0  0  0  4           0  0  0
   -0.9040    0.1447   -3.6647 C   0  0  0  0  0  4           0  0  0
   -1.9894    0.0286    1.1432 C   0  0  0  0  0  4           0  0  0
    2.2530    0.5351    0.9268 C   0  0  0  0  0  4           0  0  0
    0.0000    0.0000    0.0000 C   0  0  0  0  0  4           0  0  0
   -2.1184    0.0916   -1.1344 C   0  0  0  0  0  4           0  0  0
    4.1863    1.0763    1.8965 C   0  0  0  0  0  4           0  0  0
    8.3154    4.2735   -2.2512 C   0  0  0  0  0  4           0  0  0
    7.2072    3.5524   -0.2307 C   0  0  0  0  0  4           0  0  0
   -0.7118    0.0629   -1.2259 C   0  0  0  0  0  4           0  0  0
   -2.8799    0.1573   -2.3026 C   0  0  0  0  0  4           0  0  0
   -0.1198    0.1040   -2.5106 C   0  0  0  0  0  4           0  0  0
    3.6643    0.4511    0.7869 C   0  0  0  0  0  4           0  0  0
    7.7724    3.2450   -1.4742 C   0  0  0  0  0  4           0  0  0
    8.3040    5.5993   -1.8141 C   0  0  0  0  0  4           0  0  0
    7.1942    4.8808    0.2163 C   0  0  0  0  0  4           0  0  0
    7.7401    5.8962   -0.5745 C   0  0  0  0  0  4           0  0  0
    6.0696    2.6309    1.7754 C   0  0  0  0  0  4           0  0  0
   -4.4044    0.3382   -4.6278 C   0  0  0  0  0  4           0  0  0
   -9.0670    5.2935   -4.0617 C   0  0  0  0  0  4           0  0  0
    0.0875    1.5217   -5.3029 C   0  0  0  0  0  4           0  0  0
   -6.5457    0.5051   -6.0267 C   0  0  0  0  0  4           0  0  0
   -6.5541    2.9265   -5.8520 C   0  0  0  0  0  4           0  0  0
   -8.5159    1.6437   -5.2463 C   0  0  0  0  0  4           0  0  0
    5.5822    1.3146    2.3376 C   0  0  0  0  0  4           0  0  0
   -8.5763    4.1526   -4.9433 C   0  0  1  0  0  4           0  0  0
   -5.0172    0.4453   -6.0183 C   0  0  0  0  0  4           0  0  0
   -7.0455    4.1342   -5.0497 C   0  0  0  0  0  4           0  0  0
   -9.0712    2.8024   -4.4167 C   0  0  0  0  0  4           0  0  0
  1 11  2  0     0  0
  2 15  1  0     0  0
  2 33  1  0     0  0
  3 16  1  0     0  0
  3 35  1  0     0  0
  4 32  2  0     0  0
  5 34  1  0     0  0
  6 11  1  0     0  0
  7  8  1  0     0  0
  7 21  1  0     0  0
  8 18  2  0     0  0
  9 17  1  0     0  0
  9 19  2  0     0  0
 10 17  2  0     0  0
 10 20  1  0     0  0
 11 22  1  0     0  0
 12 18  1  0     0  0
 12 19  1  0     0  0
 13 23  1  0     0  0
 13 32  1  0     0  0
 14 36  1  0     0  0
 14 37  1  0     0  0
 14 38  1  0     0  0
 15 16  1  0     0  0
 15 25  2  0     0  0
 16 26  2  0     0  0
 18 27  1  0     0  0
 19 24  1  0     0  0
 20 24  2  0     0  0
 20 25  1  0     0  0
 21 27  2  0     0  0
 21 39  1  0     0  0
 22 28  1  0     0  0
 22 29  2  0     0  0
 23 28  2  0     0  0
 23 30  1  0     0  0
 24 26  1  0     0  0
 29 31  1  0     0  0
 30 31  2  0     0  0
 32 39  1  0     0  0
 33 41  1  0     0  0
 34 40  1  0     0  0
 36 41  1  0     0  0
 37 42  1  0     0  0
 38 43  1  0     0  0
 40 42  1  0     0  0
 40 43  1  0     0  0
M  CHG  2   6  -1  11   1
M  END
> <standard_type>
pIC50

> <# Confs.>
25

> <canonical_smiles>
O=C(CC1=CC(NC2=NC=NC3=C2C=C(OC)C(OCCCN4CCC(CO)CC4)=C3)=NN1)NC5=CC([N+]([O-])=O)=CC=C5

> <standard_relation>
=

> <Publication_ID>
nan

> <predicted_activity_value>
7.795880017344075

> <actual_activity_value>
7.4089353929735005

> <Compound>
29

> <standard_units>
nM

> hash
6972764257274872620

$$$$
29_
XXILIB    08252103423D 0   0.00000     0.00000

 43 47  0     1  0            999 V2000
    9.3357   -4.9950   -4.2027 O   0  0  0  0  0  2           0  0  0
   -2.9823    0.2903   -4.7493 O   0  0  0  0  0  2           0  0  0
   -0.2536    0.2091   -4.8645 O   0  0  0  0  0  2           0  0  0
    5.8840   -3.7464    2.3499 O   0  0  0  0  0  2           0  0  0
   -8.6533    6.5456   -4.5931 O   0  0  0  0  0  2           0  0  0
    8.8871   -2.8564   -3.8922 O   0  5  0  0  0  1           0  0  0
    3.1007   -1.5103    2.6034 N   0  0  0  0  0  3           0  0  0
    1.9217   -1.1854    2.0532 N   0  0  0  0  0  3           0  0  0
   -0.6505    0.0000    1.1896 N   0  0  0  0  0  3           0  0  0
   -2.7555    0.0700    0.0433 N   0  0  0  0  0  3           0  0  0
    8.8795   -4.0461   -3.5522 N   0  3  0  0  0  4           0  0  0
    1.4152   -0.0000   -0.0000 N   0  0  0  0  0  3           0  0  0
    6.6487   -2.5637    0.4977 N   0  0  0  0  0  3           0  0  0
   -7.0451    1.6625   -5.2793 N   0  0  1  0  0  3           0  0  0
   -2.2944    0.1932   -3.5735 C   0  0  0  0  0  4           0  0  0
   -0.9040    0.1447   -3.6647 C   0  0  0  0  0  4           0  0  0
   -1.9894    0.0286    1.1432 C   0  0  0  0  0  4           0  0  0
    2.2530   -0.5351    0.9268 C   0  0  0  0  0  4           0  0  0
    0.0000    0.0000    0.0000 C   0  0  0  0  0  4           0  0  0
   -2.1184    0.0916   -1.1344 C   0  0  0  0  0  4           0  0  0
    4.1863   -1.1043    1.8804 C   0  0  0  0  0  4           0  0  0
    8.2850   -4.3548   -2.2809 C   0  0  0  0  0  4           0  0  0
    7.1718   -3.6237   -0.2667 C   0  0  0  0  0  4           0  0  0
   -0.7118    0.0629   -1.2259 C   0  0  0  0  0  4           0  0  0
   -2.8799    0.1573   -2.3026 C   0  0  0  0  0  4           0  0  0
   -0.1198    0.1040   -2.5106 C   0  0  0  0  0  4           0  0  0
    3.6643   -0.4559    0.7841 C   0  0  0  0  0  4           0  0  0
    7.7539   -3.3204   -1.5033 C   0  0  0  0  0  4           0  0  0
    8.2484   -5.6819   -1.8493 C   0  0  0  0  0  4           0  0  0
    7.1290   -4.9540    0.1725 C   0  0  0  0  0  4           0  0  0
    7.6662   -5.9749   -0.6172 C   0  0  0  0  0  4           0  0  0
    6.0416   -2.6904    1.7381 C   0  0  0  0  0  4           0  0  0
   -4.4044    0.3382   -4.6278 C   0  0  0  0  0  4           0  0  0
   -9.0670    5.2935   -4.0617 C   0  0  0  0  0  4           0  0  0
   -0.0147   -1.0460   -5.4962 C   0  0  0  0  0  4           0  0  0
   -6.5457    0.5051   -6.0267 C   0  0  0  0  0  4           0  0  0
   -6.5541    2.9265   -5.8520 C   0  0  0  0  0  4           0  0  0
   -8.5159    1.6437   -5.2463 C   0  0  0  0  0  4           0  0  0
    5.5822   -1.3671    2.3073 C   0  0  0  0  0  4           0  0  0
   -8.5763    4.1526   -4.9433 C   0  0  1  0  0  4           0  0  0
   -5.0172    0.4453   -6.0183 C   0  0  0  0  0  4           0  0  0
   -7.0455    4.1342   -5.0497 C   0  0  0  0  0  4           0  0  0
   -9.0712    2.8024   -4.4167 C   0  0  0  0  0  4           0  0  0
  1 11  2  0     0  0
  2 15  1  0     0  0
  2 33  1  0     0  0
  3 16  1  0     0  0
  3 35  1  0     0  0
  4 32  2  0     0  0
  5 34  1  0     0  0
  6 11  1  0     0  0
  7  8  1  0     0  0
  7 21  1  0     0  0
  8 18  2  0     0  0
  9 17  1  0     0  0
  9 19  2  0     0  0
 10 17  2  0     0  0
 10 20  1  0     0  0
 11 22  1  0     0  0
 12 18  1  0     0  0
 12 19  1  0     0  0
 13 23  1  0     0  0
 13 32  1  0     0  0
 14 36  1  0     0  0
 14 37  1  0     0  0
 14 38  1  0     0  0
 15 16  1  0     0  0
 15 25  2  0     0  0
 16 26  2  0     0  0
 18 27  1  0     0  0
 19 24  1  0     0  0
 20 24  2  0     0  0
 20 25  1  0     0  0
 21 27  2  0     0  0
 21 39  1  0     0  0
 22 28  1  0     0  0
 22 29  2  0     0  0
 23 28  2  0     0  0
 23 30  1  0     0  0
 24 26  1  0     0  0
 29 31  1  0     0  0
 30 31  2  0     0  0
 32 39  1  0     0  0
 33 41  1  0     0  0
 34 40  1  0     0  0
 36 41  1  0     0  0
 37 42  1  0     0  0
 38 43  1  0     0  0
 40 42  1  0     0  0
 40 43  1  0     0  0
M  CHG  2   6  -1  11   1
M  END
> <standard_type>
pIC50

> <# Confs.>
25

> <canonical_smiles>
O=C(CC1=CC(NC2=NC=NC3=C2C=C(OC)C(OCCCN4CCC(CO)CC4)=C3)=NN1)NC5=CC([N+]([O-])=O)=CC=C5

> <standard_relation>
=

> <Publication_ID>
nan

> <predicted_activity_value>
7.795880017344075

> <actual_activity_value>
7.4089353929735005

> <Compound>
29

> <standard_units>
nM

> hash
6972764257274872620

$$$$
29_
XXILIB    08252103423D 0   0.00000     0.00000

 43 47  0     1  0            999 V2000
    6.6385   -3.2853    9.2191 O   0  0  0  0  0  2           0  0  0
   -2.9823    0.2903   -4.7493 O   0  0  0  0  0  2           0  0  0
   -0.2536    0.2091   -4.8645 O   0  0  0  0  0  2           0  0  0
    5.4843    2.4149    4.4669 O   0  0  0  0  0  2           0  0  0
   -8.4644   -5.9137   -5.6353 O   0  0  0  0  0  2           0  0  0
    6.6600   -3.9408    7.1118 O   0  5  0  0  0  1           0  0  0
    3.1007    1.4995    2.6096 N   0  0  0  0  0  3           0  0  0
    1.9217    1.1854    2.0532 N   0  0  0  0  0  3           0  0  0
   -0.6505    0.0000    1.1896 N   0  0  0  0  0  3           0  0  0
   -2.7555    0.0700    0.0433 N   0  0  0  0  0  3           0  0  0
    6.5537   -3.0865    8.0006 N   0  3  0  0  0  4           0  0  0
    1.4152   -0.0000    0.0000 N   0  0  0  0  0  3           0  0  0
    5.8664    0.1202    4.4201 N   0  0  0  0  0  3           0  0  0
   -5.1471   -2.0000   -6.3975 N   0  0  1  0  0  3           0  0  0
   -2.2944    0.1932   -3.5735 C   0  0  0  0  0  4           0  0  0
   -0.9040    0.1447   -3.6647 C   0  0  0  0  0  4           0  0  0
   -1.9894    0.0286    1.1432 C   0  0  0  0  0  4           0  0  0
    2.2530    0.5351    0.9268 C   0  0  0  0  0  4           0  0  0
    0.0000   -0.0000    0.0000 C   0  0  0  0  0  4           0  0  0
   -2.1184    0.0916   -1.1344 C   0  0  0  0  0  4           0  0  0
    4.1863    1.0763    1.8965 C   0  0  0  0  0  4           0  0  0
    6.3092   -1.7353    7.5771 C   0  0  0  0  0  4           0  0  0
    5.9629   -0.1369    5.8007 C   0  0  0  0  0  4           0  0  0
   -0.7118    0.0629   -1.2259 C   0  0  0  0  0  4           0  0  0
   -2.8799    0.1573   -2.3026 C   0  0  0  0  0  4           0  0  0
   -0.1198    0.1040   -2.5106 C   0  0  0  0  0  4           0  0  0
    3.6643    0.4511    0.7869 C   0  0  0  0  0  4           0  0  0
    6.2048   -1.4534    6.2111 C   0  0  0  0  0  4           0  0  0
    6.1792   -0.7321    8.5391 C   0  0  0  0  0  4           0  0  0
    5.8287    0.8756    6.7606 C   0  0  0  0  0  4           0  0  0
    5.9377    0.5758    8.1217 C   0  0  0  0  0  4           0  0  0
    5.6313    1.3616    3.8481 C   0  0  0  0  0  4           0  0  0
   -4.4044    0.3382   -4.6278 C   0  0  0  0  0  4           0  0  0
   -7.0547   -5.8426   -5.8055 C   0  0  0  0  0  4           0  0  0
   -0.0147   -1.0460   -5.4962 C   0  0  0  0  0  4           0  0  0
   -4.6778   -0.7240   -6.9444 C   0  0  0  0  0  4           0  0  0
   -6.6069   -2.0008   -6.2080 C   0  0  0  0  0  4           0  0  0
   -4.7369   -3.1058   -7.2771 C   0  0  0  0  0  4           0  0  0
    5.5822    1.3146    2.3376 C   0  0  0  0  0  4           0  0  0
   -6.6626   -4.5216   -6.4543 C   0  0  1  0  0  4           0  0  0
   -5.0172    0.4453   -6.0183 C   0  0  0  0  0  4           0  0  0
   -7.0933   -3.3200   -5.6024 C   0  0  0  0  0  4           0  0  0
   -5.1526   -4.4609   -6.7024 C   0  0  0  0  0  4           0  0  0
  1 11  2  0     0  0
  2 15  1  0     0  0
  2 33  1  0     0  0
  3 16  1  0     0  0
  3 35  1  0     0  0
  4 32  2  0     0  0
  5 34  1  0     0  0
  6 11  1  0     0  0
  7  8  1  0     0  0
  7 21  1  0     0  0
  8 18  2  0     0  0
  9 17  1  0     0  0
  9 19  2  0     0  0
 10 17  2  0     0  0
 10 20  1  0     0  0
 11 22  1  0     0  0
 12 18  1  0     0  0
 12 19  1  0     0  0
 13 23  1  0     0  0
 13 32  1  0     0  0
 14 36  1  0     0  0
 14 37  1  0     0  0
 14 38  1  0     0  0
 15 16  1  0     0  0
 15 25  2  0     0  0
 16 26  2  0     0  0
 18 27  1  0     0  0
 19 24  1  0     0  0
 20 24  2  0     0  0
 20 25  1  0     0  0
 21 27  2  0     0  0
 21 39  1  0     0  0
 22 28  1  0     0  0
 22 29  2  0     0  0
 23 28  2  0     0  0
 23 30  1  0     0  0
 24 26  1  0     0  0
 29 31  1  0     0  0
 30 31  2  0     0  0
 32 39  1  0     0  0
 33 41  1  0     0  0
 34 40  1  0     0  0
 36 41  1  0     0  0
 37 42  1  0     0  0
 38 43  1  0     0  0
 40 42  1  0     0  0
 40 43  1  0     0  0
M  CHG  2   6  -1  11   1
M  END
> <standard_type>
pIC50

> <# Confs.>
25

> <canonical_smiles>
O=C(CC1=CC(NC2=NC=NC3=C2C=C(OC)C(OCCCN4CCC(CO)CC4)=C3)=NN1)NC5=CC([N+]([O-])=O)=CC=C5

> <standard_relation>
=

> <Publication_ID>
nan

> <predicted_activity_value>
7.795880017344075

> <actual_activity_value>
7.4089353929735005

> <Compound>
29

> <standard_units>
nM

> hash
6972764257274872620

$$$$
29_
XXILIB    08252103423D 0   0.00000     0.00000

 43 47  0     1  0            999 V2000
    9.3357   -6.1371    2.2244 O   0  0  0  0  0  2           0  0  0
   -2.9823    0.2903   -4.7493 O   0  0  0  0  0  2           0  0  0
   -0.2536    0.2091   -4.8645 O   0  0  0  0  0  2           0  0  0
    5.8840    0.1618    4.4194 O   0  0  0  0  0  2           0  0  0
  -10.4864    5.2851   -3.9821 O   0  0  0  0  0  2           0  0  0
    8.8871   -4.7989    0.5276 O   0  5  0  0  0  1           0  0  0
    3.1007    1.4995    2.6096 N   0  0  0  0  0  3           0  0  0
    1.9217    1.1854    2.0532 N   0  0  0  0  0  3           0  0  0
   -0.6505    0.0000    1.1896 N   0  0  0  0  0  3           0  0  0
   -2.7555    0.0700    0.0433 N   0  0  0  0  0  3           0  0  0
    8.8795   -5.0993    1.7280 N   0  3  0  0  0  4           0  0  0
    1.4152   -0.0000   -0.0000 N   0  0  0  0  0  3           0  0  0
    6.6487   -0.8508    2.4691 N   0  0  0  0  0  3           0  0  0
   -7.0451    1.6625   -5.2793 N   0  0  1  0  0  3           0  0  0
   -2.2944    0.1932   -3.5735 C   0  0  0  0  0  4           0  0  0
   -0.9040    0.1447   -3.6647 C   0  0  0  0  0  4           0  0  0
   -1.9894    0.0286    1.1432 C   0  0  0  0  0  4           0  0  0
    2.2530    0.5351    0.9268 C   0  0  0  0  0  4           0  0  0
    0.0000    0.0000    0.0000 C   0  0  0  0  0  4           0  0  0
   -2.1184    0.0916   -1.1344 C   0  0  0  0  0  4           0  0  0
    4.1863    1.0763    1.8965 C   0  0  0  0  0  4           0  0  0
    8.2850   -4.1527    2.6309 C   0  0  0  0  0  4           0  0  0
    7.1718   -2.0428    3.0049 C   0  0  0  0  0  4           0  0  0
   -0.7118    0.0629   -1.2259 C   0  0  0  0  0  4           0  0  0
   -2.8799    0.1573   -2.3026 C   0  0  0  0  0  4           0  0  0
   -0.1198    0.1040   -2.5106 C   0  0  0  0  0  4           0  0  0
    3.6643    0.4511    0.7869 C   0  0  0  0  0  4           0  0  0
    7.7539   -2.9621    2.1239 C   0  0  0  0  0  4           0  0  0
    8.2484   -4.4425    3.9960 C   0  0  0  0  0  4           0  0  0
    7.1290   -2.3276    4.3766 C   0  0  0  0  0  4           0  0  0
    7.6662   -3.5220    4.8659 C   0  0  0  0  0  4           0  0  0
    6.0416    0.1601    3.1991 C   0  0  0  0  0  4           0  0  0
   -4.4044    0.3382   -4.6278 C   0  0  0  0  0  4           0  0  0
   -9.0670    5.2935   -4.0617 C   0  0  0  0  0  4           0  0  0
   -0.0147   -1.0460   -5.4962 C   0  0  0  0  0  4           0  0  0
   -6.5457    0.5051   -6.0267 C   0  0  0  0  0  4           0  0  0
   -6.5541    2.9265   -5.8520 C   0  0  0  0  0  4           0  0  0
   -8.5159    1.6437   -5.2463 C   0  0  0  0  0  4           0  0  0
    5.5822    1.3146    2.3376 C   0  0  0  0  0  4           0  0  0
   -8.5763    4.1526   -4.9433 C   0  0  1  0  0  4           0  0  0
   -5.0172    0.4453   -6.0183 C   0  0  0  0  0  4           0  0  0
   -7.0455    4.1342   -5.0497 C   0  0  0  0  0  4           0  0  0
   -9.0712    2.8024   -4.4167 C   0  0  0  0  0  4           0  0  0
  1 11  2  0     0  0
  2 15  1  0     0  0
  2 33  1  0     0  0
  3 16  1  0     0  0
  3 35  1  0     0  0
  4 32  2  0     0  0
  5 34  1  0     0  0
  6 11  1  0     0  0
  7  8  1  0     0  0
  7 21  1  0     0  0
  8 18  2  0     0  0
  9 17  1  0     0  0
  9 19  2  0     0  0
 10 17  2  0     0  0
 10 20  1  0     0  0
 11 22  1  0     0  0
 12 18  1  0     0  0
 12 19  1  0     0  0
 13 23  1  0     0  0
 13 32  1  0     0  0
 14 36  1  0     0  0
 14 37  1  0     0  0
 14 38  1  0     0  0
 15 16  1  0     0  0
 15 25  2  0     0  0
 16 26  2  0     0  0
 18 27  1  0     0  0
 19 24  1  0     0  0
 20 24  2  0     0  0
 20 25  1  0     0  0
 21 27  2  0     0  0
 21 39  1  0     0  0
 22 28  1  0     0  0
 22 29  2  0     0  0
 23 28  2  0     0  0
 23 30  1  0     0  0
 24 26  1  0     0  0
 29 31  1  0     0  0
 30 31  2  0     0  0
 32 39  1  0     0  0
 33 41  1  0     0  0
 34 40  1  0     0  0
 36 41  1  0     0  0
 37 42  1  0     0  0
 38 43  1  0     0  0
 40 42  1  0     0  0
 40 43  1  0     0  0
M  CHG  2   6  -1  11   1
M  END
> <standard_type>
pIC50

> <# Confs.>
25

> <canonical_smiles>
O=C(CC1=CC(NC2=NC=NC3=C2C=C(OC)C(OCCCN4CCC(CO)CC4)=C3)=NN1)NC5=CC([N+]([O-])=O)=CC=C5

> <standard_relation>
=

> <Publication_ID>
nan

> <predicted_activity_value>
7.795880017344075

> <actual_activity_value>
7.4089353929735005

> <Compound>
29

> <standard_units>
nM

> hash
6972764257274872620

$$$$
29_
XXILIB    08252103423D 0   0.00000     0.00000

 43 47  0     1  0            999 V2000
    9.3660    4.9035   -4.1764 O   0  0  0  0  0  2           0  0  0
   -2.9823    0.2903   -4.7493 O   0  0  0  0  0  2           0  0  0
   -0.2536    0.2091   -4.8645 O   0  0  0  0  0  2           0  0  0
    5.9240    3.6884    2.3874 O   0  0  0  0  0  2           0  0  0
  -10.4864    5.2851   -3.9821 O   0  0  0  0  0  2           0  0  0
    8.8872    2.7710   -3.8696 O   0  5  0  0  0  1           0  0  0
    3.1007    1.4995    2.6096 N   0  0  0  0  0  3           0  0  0
    1.9217    1.1854    2.0532 N   0  0  0  0  0  3           0  0  0
   -0.6505    0.0000    1.1896 N   0  0  0  0  0  3           0  0  0
   -2.7555    0.0700    0.0433 N   0  0  0  0  0  3           0  0  0
    8.8993    3.9596   -3.5261 N   0  3  0  0  0  4           0  0  0
    1.4152   -0.0000    0.0000 N   0  0  0  0  0  3           0  0  0
    6.6640    2.4994    0.5293 N   0  0  0  0  0  3           0  0  0
   -7.0451    1.6625   -5.2793 N   0  0  1  0  0  3           0  0  0
   -2.2944    0.1932   -3.5735 C   0  0  0  0  0  4           0  0  0
   -0.9040    0.1447   -3.6647 C   0  0  0  0  0  4           0  0  0
   -1.9894    0.0286    1.1432 C   0  0  0  0  0  4           0  0  0
    2.2530    0.5351    0.9268 C   0  0  0  0  0  4           0  0  0
    0.0000    0.0000    0.0000 C   0  0  0  0  0  4           0  0  0
   -2.1184    0.0916   -1.1344 C   0  0  0  0  0  4           0  0  0
    4.1863    1.0763    1.8965 C   0  0  0  0  0  4           0  0  0
    8.3154    4.2735   -2.2512 C   0  0  0  0  0  4           0  0  0
    7.2072    3.5524   -0.2307 C   0  0  0  0  0  4           0  0  0
   -0.7118    0.0629   -1.2259 C   0  0  0  0  0  4           0  0  0
   -2.8799    0.1573   -2.3026 C   0  0  0  0  0  4           0  0  0
   -0.1198    0.1040   -2.5106 C   0  0  0  0  0  4           0  0  0
    3.6643    0.4511    0.7869 C   0  0  0  0  0  4           0  0  0
    7.7724    3.2450   -1.4742 C   0  0  0  0  0  4           0  0  0
    8.3040    5.5993   -1.8141 C   0  0  0  0  0  4           0  0  0
    7.1942    4.8808    0.2163 C   0  0  0  0  0  4           0  0  0
    7.7401    5.8962   -0.5745 C   0  0  0  0  0  4           0  0  0
    6.0696    2.6309    1.7754 C   0  0  0  0  0  4           0  0  0
   -4.4044    0.3382   -4.6278 C   0  0  0  0  0  4           0  0  0
   -9.0670    5.2935   -4.0617 C   0  0  0  0  0  4           0  0  0
   -0.0147   -1.0460   -5.4962 C   0  0  0  0  0  4           0  0  0
   -6.5457    0.5051   -6.0267 C   0  0  0  0  0  4           0  0  0
   -6.5541    2.9265   -5.8520 C   0  0  0  0  0  4           0  0  0
   -8.5159    1.6437   -5.2463 C   0  0  0  0  0  4           0  0  0
    5.5822    1.3146    2.3376 C   0  0  0  0  0  4           0  0  0
   -8.5763    4.1526   -4.9433 C   0  0  1  0  0  4           0  0  0
   -5.0172    0.4453   -6.0183 C   0  0  0  0  0  4           0  0  0
   -7.0455    4.1342   -5.0497 C   0  0  0  0  0  4           0  0  0
   -9.0712    2.8024   -4.4167 C   0  0  0  0  0  4           0  0  0
  1 11  2  0     0  0
  2 15  1  0     0  0
  2 33  1  0     0  0
  3 16  1  0     0  0
  3 35  1  0     0  0
  4 32  2  0     0  0
  5 34  1  0     0  0
  6 11  1  0     0  0
  7  8  1  0     0  0
  7 21  1  0     0  0
  8 18  2  0     0  0
  9 17  1  0     0  0
  9 19  2  0     0  0
 10 17  2  0     0  0
 10 20  1  0     0  0
 11 22  1  0     0  0
 12 18  1  0     0  0
 12 19  1  0     0  0
 13 23  1  0     0  0
 13 32  1  0     0  0
 14 36  1  0     0  0
 14 37  1  0     0  0
 14 38  1  0     0  0
 15 16  1  0     0  0
 15 25  2  0     0  0
 16 26  2  0     0  0
 18 27  1  0     0  0
 19 24  1  0     0  0
 20 24  2  0     0  0
 20 25  1  0     0  0
 21 27  2  0     0  0
 21 39  1  0     0  0
 22 28  1  0     0  0
 22 29  2  0     0  0
 23 28  2  0     0  0
 23 30  1  0     0  0
 24 26  1  0     0  0
 29 31  1  0     0  0
 30 31  2  0     0  0
 32 39  1  0     0  0
 33 41  1  0     0  0
 34 40  1  0     0  0
 36 41  1  0     0  0
 37 42  1  0     0  0
 38 43  1  0     0  0
 40 42  1  0     0  0
 40 43  1  0     0  0
M  CHG  2   6  -1  11   1
M  END
> <standard_type>
pIC50

> <# Confs.>
25

> <canonical_smiles>
O=C(CC1=CC(NC2=NC=NC3=C2C=C(OC)C(OCCCN4CCC(CO)CC4)=C3)=NN1)NC5=CC([N+]([O-])=O)=CC=C5

> <standard_relation>
=

> <Publication_ID>
nan

> <predicted_activity_value>
7.795880017344075

> <actual_activity_value>
7.4089353929735005

> <Compound>
29

> <standard_units>
nM

> hash
6972764257274872620

$$$$
29_
XXILIB    08252103423D 0   0.00000     0.00000

 43 47  0     1  0            999 V2000
    6.6787    9.5697    1.8063 O   0  0  0  0  0  2           0  0  0
   -2.9823    0.2903   -4.7493 O   0  0  0  0  0  2           0  0  0
   -0.2536    0.2091   -4.8645 O   0  0  0  0  0  2           0  0  0
    5.4865    2.6066    4.3565 O   0  0  0  0  0  2           0  0  0
   -8.4644   -5.9137   -5.6353 O   0  0  0  0  0  2           0  0  0
    6.7010    8.0736    0.1839 O   0  5  0  0  0  1           0  0  0
    3.1007    1.4995    2.6096 N   0  0  0  0  0  3           0  0  0
    1.9217    1.1854    2.0532 N   0  0  0  0  0  3           0  0  0
   -0.6505    0.0000    1.1896 N   0  0  0  0  0  3           0  0  0
   -2.7555    0.0700    0.0433 N   0  0  0  0  0  3           0  0  0
    6.5920    8.4156    1.3680 N   0  3  0  0  0  4           0  0  0
    1.4152   -0.0000    0.0000 N   0  0  0  0  0  3           0  0  0
    5.8820    3.7134    2.3483 N   0  0  0  0  0  3           0  0  0
   -5.1471   -2.0000   -6.3975 N   0  0  1  0  0  3           0  0  0
   -2.2944    0.1932   -3.5735 C   0  0  0  0  0  4           0  0  0
   -0.9040    0.1447   -3.6647 C   0  0  0  0  0  4           0  0  0
   -1.9894    0.0286    1.1432 C   0  0  0  0  0  4           0  0  0
    2.2530    0.5351    0.9268 C   0  0  0  0  0  4           0  0  0
    0.0000   -0.0000    0.0000 C   0  0  0  0  0  4           0  0  0
   -2.1184    0.0916   -1.1344 C   0  0  0  0  0  4           0  0  0
    4.1863    1.0763    1.8965 C   0  0  0  0  0  4           0  0  0
    6.3401    7.3734    2.3247 C   0  0  0  0  0  4           0  0  0
    5.9904    5.0358    2.8185 C   0  0  0  0  0  4           0  0  0
   -0.7118    0.0629   -1.2259 C   0  0  0  0  0  4           0  0  0
   -2.8799    0.1573   -2.3026 C   0  0  0  0  0  4           0  0  0
   -0.1198    0.1040   -2.5106 C   0  0  0  0  0  4           0  0  0
    3.6643    0.4511    0.7869 C   0  0  0  0  0  4           0  0  0
    6.2321    6.0502    1.8844 C   0  0  0  0  0  4           0  0  0
    6.2102    7.7038    3.6748 C   0  0  0  0  0  4           0  0  0
    5.8612    5.3592    4.1762 C   0  0  0  0  0  4           0  0  0
    5.9704    6.6875    4.5982 C   0  0  0  0  0  4           0  0  0
    5.6453    2.5970    3.1363 C   0  0  0  0  0  4           0  0  0
   -4.4044    0.3382   -4.6278 C   0  0  0  0  0  4           0  0  0
   -7.0547   -5.8426   -5.8055 C   0  0  0  0  0  4           0  0  0
   -0.0147   -1.0460   -5.4962 C   0  0  0  0  0  4           0  0  0
   -4.6778   -0.7240   -6.9444 C   0  0  0  0  0  4           0  0  0
   -6.6069   -2.0008   -6.2080 C   0  0  0  0  0  4           0  0  0
   -4.7369   -3.1058   -7.2771 C   0  0  0  0  0  4           0  0  0
    5.5822    1.3146    2.3376 C   0  0  0  0  0  4           0  0  0
   -6.6626   -4.5216   -6.4543 C   0  0  1  0  0  4           0  0  0
   -5.0172    0.4453   -6.0183 C   0  0  0  0  0  4           0  0  0
   -7.0933   -3.3200   -5.6024 C   0  0  0  0  0  4           0  0  0
   -5.1526   -4.4609   -6.7024 C   0  0  0  0  0  4           0  0  0
  1 11  2  0     0  0
  2 15  1  0     0  0
  2 33  1  0     0  0
  3 16  1  0     0  0
  3 35  1  0     0  0
  4 32  2  0     0  0
  5 34  1  0     0  0
  6 11  1  0     0  0
  7  8  1  0     0  0
  7 21  1  0     0  0
  8 18  2  0     0  0
  9 17  1  0     0  0
  9 19  2  0     0  0
 10 17  2  0     0  0
 10 20  1  0     0  0
 11 22  1  0     0  0
 12 18  1  0     0  0
 12 19  1  0     0  0
 13 23  1  0     0  0
 13 32  1  0     0  0
 14 36  1  0     0  0
 14 37  1  0     0  0
 14 38  1  0     0  0
 15 16  1  0     0  0
 15 25  2  0     0  0
 16 26  2  0     0  0
 18 27  1  0     0  0
 19 24  1  0     0  0
 20 24  2  0     0  0
 20 25  1  0     0  0
 21 27  2  0     0  0
 21 39  1  0     0  0
 22 28  1  0     0  0
 22 29  2  0     0  0
 23 28  2  0     0  0
 23 30  1  0     0  0
 24 26  1  0     0  0
 29 31  1  0     0  0
 30 31  2  0     0  0
 32 39  1  0     0  0
 33 41  1  0     0  0
 34 40  1  0     0  0
 36 41  1  0     0  0
 37 42  1  0     0  0
 38 43  1  0     0  0
 40 42  1  0     0  0
 40 43  1  0     0  0
M  CHG  2   6  -1  11   1
M  END
> <standard_type>
pIC50

> <# Confs.>
25

> <canonical_smiles>
O=C(CC1=CC(NC2=NC=NC3=C2C=C(OC)C(OCCCN4CCC(CO)CC4)=C3)=NN1)NC5=CC([N+]([O-])=O)=CC=C5

> <standard_relation>
=

> <Publication_ID>
nan

> <predicted_activity_value>
7.795880017344075

> <actual_activity_value>
7.4089353929735005

> <Compound>
29

> <standard_units>
nM

> hash
6972764257274872620

$$$$
29_
XXILIB    08252103423D 0   0.00000     0.00000

 43 47  0     1  0            999 V2000
    6.6385   -9.6267    1.7644 O   0  0  0  0  0  2           0  0  0
   -2.9823    0.2903   -4.7493 O   0  0  0  0  0  2           0  0  0
   -0.2536    0.2091   -4.8645 O   0  0  0  0  0  2           0  0  0
    5.4843   -2.6610    4.3249 O   0  0  0  0  0  2           0  0  0
   -8.4644   -5.9137   -5.6353 O   0  0  0  0  0  2           0  0  0
    6.6600   -8.1294    0.1430 O   0  5  0  0  0  1           0  0  0
    3.1007   -1.5103    2.6034 N   0  0  0  0  0  3           0  0  0
    1.9217   -1.1854    2.0532 N   0  0  0  0  0  3           0  0  0
   -0.6505    0.0000    1.1896 N   0  0  0  0  0  3           0  0  0
   -2.7555    0.0700    0.0433 N   0  0  0  0  0  3           0  0  0
    6.5537   -8.4720    1.3273 N   0  3  0  0  0  4           0  0  0
    1.4152   -0.0000   -0.0000 N   0  0  0  0  0  3           0  0  0
    5.8664   -3.7678    2.3142 N   0  0  0  0  0  3           0  0  0
   -5.1471   -2.0000   -6.3975 N   0  0  1  0  0  3           0  0  0
   -2.2944    0.1932   -3.5735 C   0  0  0  0  0  4           0  0  0
   -0.9040    0.1447   -3.6647 C   0  0  0  0  0  4           0  0  0
   -1.9894    0.0286    1.1432 C   0  0  0  0  0  4           0  0  0
    2.2530   -0.5351    0.9268 C   0  0  0  0  0  4           0  0  0
    0.0000   -0.0000    0.0000 C   0  0  0  0  0  4           0  0  0
   -2.1184    0.0916   -1.1344 C   0  0  0  0  0  4           0  0  0
    4.1863   -1.1043    1.8804 C   0  0  0  0  0  4           0  0  0
    6.3092   -7.4297    2.2857 C   0  0  0  0  0  4           0  0  0
    5.9629   -5.0920    2.7818 C   0  0  0  0  0  4           0  0  0
   -0.7118    0.0629   -1.2259 C   0  0  0  0  0  4           0  0  0
   -2.8799    0.1573   -2.3026 C   0  0  0  0  0  4           0  0  0
   -0.1198    0.1040   -2.5106 C   0  0  0  0  0  4           0  0  0
    3.6643   -0.4559    0.7841 C   0  0  0  0  0  4           0  0  0
    6.2048   -6.1056    1.8469 C   0  0  0  0  0  4           0  0  0
    6.1792   -7.7611    3.6355 C   0  0  0  0  0  4           0  0  0
    5.8287   -5.4171    4.1386 C   0  0  0  0  0  4           0  0  0
    5.9377   -6.7457    4.5595 C   0  0  0  0  0  4           0  0  0
    5.6313   -2.6518    3.1032 C   0  0  0  0  0  4           0  0  0
   -4.4044    0.3382   -4.6278 C   0  0  0  0  0  4           0  0  0
   -7.0547   -5.8426   -5.8055 C   0  0  0  0  0  4           0  0  0
   -0.0147   -1.0460   -5.4962 C   0  0  0  0  0  4           0  0  0
   -4.6778   -0.7240   -6.9444 C   0  0  0  0  0  4           0  0  0
   -6.6069   -2.0008   -6.2080 C   0  0  0  0  0  4           0  0  0
   -4.7369   -3.1058   -7.2771 C   0  0  0  0  0  4           0  0  0
    5.5822   -1.3671    2.3073 C   0  0  0  0  0  4           0  0  0
   -6.6626   -4.5216   -6.4543 C   0  0  1  0  0  4           0  0  0
   -5.0172    0.4453   -6.0183 C   0  0  0  0  0  4           0  0  0
   -7.0933   -3.3200   -5.6024 C   0  0  0  0  0  4           0  0  0
   -5.1526   -4.4609   -6.7024 C   0  0  0  0  0  4           0  0  0
  1 11  2  0     0  0
  2 15  1  0     0  0
  2 33  1  0     0  0
  3 16  1  0     0  0
  3 35  1  0     0  0
  4 32  2  0     0  0
  5 34  1  0     0  0
  6 11  1  0     0  0
  7  8  1  0     0  0
  7 21  1  0     0  0
  8 18  2  0     0  0
  9 17  1  0     0  0
  9 19  2  0     0  0
 10 17  2  0     0  0
 10 20  1  0     0  0
 11 22  1  0     0  0
 12 18  1  0     0  0
 12 19  1  0     0  0
 13 23  1  0     0  0
 13 32  1  0     0  0
 14 36  1  0     0  0
 14 37  1  0     0  0
 14 38  1  0     0  0
 15 16  1  0     0  0
 15 25  2  0     0  0
 16 26  2  0     0  0
 18 27  1  0     0  0
 19 24  1  0     0  0
 20 24  2  0     0  0
 20 25  1  0     0  0
 21 27  2  0     0  0
 21 39  1  0     0  0
 22 28  1  0     0  0
 22 29  2  0     0  0
 23 28  2  0     0  0
 23 30  1  0     0  0
 24 26  1  0     0  0
 29 31  1  0     0  0
 30 31  2  0     0  0
 32 39  1  0     0  0
 33 41  1  0     0  0
 34 40  1  0     0  0
 36 41  1  0     0  0
 37 42  1  0     0  0
 38 43  1  0     0  0
 40 42  1  0     0  0
 40 43  1  0     0  0
M  CHG  2   6  -1  11   1
M  END
> <standard_type>
pIC50

> <# Confs.>
25

> <canonical_smiles>
O=C(CC1=CC(NC2=NC=NC3=C2C=C(OC)C(OCCCN4CCC(CO)CC4)=C3)=NN1)NC5=CC([N+]([O-])=O)=CC=C5

> <standard_relation>
=

> <Publication_ID>
nan

> <predicted_activity_value>
7.795880017344075

> <actual_activity_value>
7.4089353929735005

> <Compound>
29

> <standard_units>
nM

> hash
6972764257274872620

$$$$
29_
XXILIB    08252103423D 0   0.00000     0.00000

 43 47  0     1  0            999 V2000
    9.3660    6.0687    2.1583 O   0  0  0  0  0  2           0  0  0
   -2.9823    0.2903   -4.7493 O   0  0  0  0  0  2           0  0  0
   -0.2536    0.2091   -4.8645 O   0  0  0  0  0  2           0  0  0
    5.9240   -0.2234    4.3880 O   0  0  0  0  0  2           0  0  0
   -8.6533    6.5456   -4.5931 O   0  0  0  0  0  2           0  0  0
    8.8872    4.7367    0.4649 O   0  5  0  0  0  1           0  0  0
    3.1007   -1.5103    2.6034 N   0  0  0  0  0  3           0  0  0
    1.9217   -1.1854    2.0532 N   0  0  0  0  0  3           0  0  0
   -0.6505    0.0000    1.1896 N   0  0  0  0  0  3           0  0  0
   -2.7555    0.0700    0.0433 N   0  0  0  0  0  3           0  0  0
    8.8993    5.0335    1.6661 N   0  3  0  0  0  4           0  0  0
    1.4152   -0.0000    0.0000 N   0  0  0  0  0  3           0  0  0
    6.6640    0.7913    2.4292 N   0  0  0  0  0  3           0  0  0
   -7.0451    1.6625   -5.2793 N   0  0  1  0  0  3           0  0  0
   -2.2944    0.1932   -3.5735 C   0  0  0  0  0  4           0  0  0
   -0.9040    0.1447   -3.6647 C   0  0  0  0  0  4           0  0  0
   -1.9894    0.0286    1.1432 C   0  0  0  0  0  4           0  0  0
    2.2530   -0.5351    0.9268 C   0  0  0  0  0  4           0  0  0
    0.0000    0.0000    0.0000 C   0  0  0  0  0  4           0  0  0
   -2.1184    0.0916   -1.1344 C   0  0  0  0  0  4           0  0  0
    4.1863   -1.1043    1.8804 C   0  0  0  0  0  4           0  0  0
    8.3154    4.0864    2.5753 C   0  0  0  0  0  4           0  0  0
    7.2072    1.9760    2.9611 C   0  0  0  0  0  4           0  0  0
   -0.7118    0.0629   -1.2259 C   0  0  0  0  0  4           0  0  0
   -2.8799    0.1573   -2.3026 C   0  0  0  0  0  4           0  0  0
   -0.1198    0.1040   -2.5106 C   0  0  0  0  0  4           0  0  0
    3.6643   -0.4559    0.7841 C   0  0  0  0  0  4           0  0  0
    7.7724    2.8992    2.0732 C   0  0  0  0  0  4           0  0  0
    8.3040    4.3707    3.9420 C   0  0  0  0  0  4           0  0  0
    7.1942    2.2531    4.3350 C   0  0  0  0  0  4           0  0  0
    7.7401    3.4457    4.8190 C   0  0  0  0  0  4           0  0  0
    6.0696   -0.2221    3.1661 C   0  0  0  0  0  4           0  0  0
   -4.4044    0.3382   -4.6278 C   0  0  0  0  0  4           0  0  0
   -9.0670    5.2935   -4.0617 C   0  0  0  0  0  4           0  0  0
   -0.0147   -1.0460   -5.4962 C   0  0  0  0  0  4           0  0  0
   -6.5457    0.5051   -6.0267 C   0  0  0  0  0  4           0  0  0
   -6.5541    2.9265   -5.8520 C   0  0  0  0  0  4           0  0  0
   -8.5159    1.6437   -5.2463 C   0  0  0  0  0  4           0  0  0
    5.5822   -1.3671    2.3073 C   0  0  0  0  0  4           0  0  0
   -8.5763    4.1526   -4.9433 C   0  0  1  0  0  4           0  0  0
   -5.0172    0.4453   -6.0183 C   0  0  0  0  0  4           0  0  0
   -7.0455    4.1342   -5.0497 C   0  0  0  0  0  4           0  0  0
   -9.0712    2.8024   -4.4167 C   0  0  0  0  0  4           0  0  0
  1 11  2  0     0  0
  2 15  1  0     0  0
  2 33  1  0     0  0
  3 16  1  0     0  0
  3 35  1  0     0  0
  4 32  2  0     0  0
  5 34  1  0     0  0
  6 11  1  0     0  0
  7  8  1  0     0  0
  7 21  1  0     0  0
  8 18  2  0     0  0
  9 17  1  0     0  0
  9 19  2  0     0  0
 10 17  2  0     0  0
 10 20  1  0     0  0
 11 22  1  0     0  0
 12 18  1  0     0  0
 12 19  1  0     0  0
 13 23  1  0     0  0
 13 32  1  0     0  0
 14 36  1  0     0  0
 14 37  1  0     0  0
 14 38  1  0     0  0
 15 16  1  0     0  0
 15 25  2  0     0  0
 16 26  2  0     0  0
 18 27  1  0     0  0
 19 24  1  0     0  0
 20 24  2  0     0  0
 20 25  1  0     0  0
 21 27  2  0     0  0
 21 39  1  0     0  0
 22 28  1  0     0  0
 22 29  2  0     0  0
 23 28  2  0     0  0
 23 30  1  0     0  0
 24 26  1  0     0  0
 29 31  1  0     0  0
 30 31  2  0     0  0
 32 39  1  0     0  0
 33 41  1  0     0  0
 34 40  1  0     0  0
 36 41  1  0     0  0
 37 42  1  0     0  0
 38 43  1  0     0  0
 40 42  1  0     0  0
 40 43  1  0     0  0
M  CHG  2   6  -1  11   1
M  END
> <standard_type>
pIC50

> <# Confs.>
25

> <canonical_smiles>
O=C(CC1=CC(NC2=NC=NC3=C2C=C(OC)C(OCCCN4CCC(CO)CC4)=C3)=NN1)NC5=CC([N+]([O-])=O)=CC=C5

> <standard_relation>
=

> <Publication_ID>
nan

> <predicted_activity_value>
7.795880017344075

> <actual_activity_value>
7.4089353929735005

> <Compound>
29

> <standard_units>
nM

> hash
6972764257274872620

$$$$
29_
XXILIB    08252103423D 0   0.00000     0.00000

 43 47  0     1  0            999 V2000
    9.3357   -6.1371    2.2244 O   0  0  0  0  0  2           0  0  0
   -2.9823    0.2903   -4.7493 O   0  0  0  0  0  2           0  0  0
   -0.2536    0.2091   -4.8645 O   0  0  0  0  0  2           0  0  0
    5.8840    0.1618    4.4194 O   0  0  0  0  0  2           0  0  0
   -5.5948    0.9279  -13.2225 O   0  0  0  0  0  2           0  0  0
    8.8871   -4.7989    0.5276 O   0  5  0  0  0  1           0  0  0
    3.1007    1.4995    2.6096 N   0  0  0  0  0  3           0  0  0
    1.9217    1.1854    2.0532 N   0  0  0  0  0  3           0  0  0
   -0.6505    0.0000    1.1896 N   0  0  0  0  0  3           0  0  0
   -2.7555    0.0700    0.0433 N   0  0  0  0  0  3           0  0  0
    8.8795   -5.0993    1.7280 N   0  3  0  0  0  4           0  0  0
    1.4152   -0.0000   -0.0000 N   0  0  0  0  0  3           0  0  0
    6.6487   -0.8508    2.4691 N   0  0  0  0  0  3           0  0  0
   -5.2943   -0.5644   -8.2642 N   0  0  1  0  0  3           0  0  0
   -2.2944    0.1932   -3.5735 C   0  0  0  0  0  4           0  0  0
   -0.9040    0.1447   -3.6647 C   0  0  0  0  0  4           0  0  0
   -1.9894    0.0286    1.1432 C   0  0  0  0  0  4           0  0  0
    2.2530    0.5351    0.9268 C   0  0  0  0  0  4           0  0  0
    0.0000   -0.0000    0.0000 C   0  0  0  0  0  4           0  0  0
   -2.1184    0.0916   -1.1344 C   0  0  0  0  0  4           0  0  0
    4.1863    1.0763    1.8965 C   0  0  0  0  0  4           0  0  0
    8.2850   -4.1527    2.6309 C   0  0  0  0  0  4           0  0  0
    7.1718   -2.0428    3.0049 C   0  0  0  0  0  4           0  0  0
   -0.7118    0.0629   -1.2259 C   0  0  0  0  0  4           0  0  0
   -2.8799    0.1573   -2.3026 C   0  0  0  0  0  4           0  0  0
   -0.1198    0.1040   -2.5106 C   0  0  0  0  0  4           0  0  0
    3.6643    0.4511    0.7869 C   0  0  0  0  0  4           0  0  0
    7.7539   -2.9621    2.1239 C   0  0  0  0  0  4           0  0  0
    8.2484   -4.4425    3.9960 C   0  0  0  0  0  4           0  0  0
    7.1290   -2.3276    4.3766 C   0  0  0  0  0  4           0  0  0
    7.6662   -3.5220    4.8659 C   0  0  0  0  0  4           0  0  0
    6.0416    0.1601    3.1991 C   0  0  0  0  0  4           0  0  0
   -4.4044    0.3382   -4.6278 C   0  0  0  0  0  4           0  0  0
   -6.0294   -0.2284  -12.5188 C   0  0  0  0  0  4           0  0  0
    0.0875    1.5217   -5.3029 C   0  0  0  0  0  4           0  0  0
   -4.6778   -0.7240   -6.9444 C   0  0  0  0  0  4           0  0  0
   -4.8360    0.6671   -8.9277 C   0  0  0  0  0  4           0  0  0
   -5.0081   -1.7417   -9.0990 C   0  0  0  0  0  4           0  0  0
    5.5822    1.3146    2.3376 C   0  0  0  0  0  4           0  0  0
   -5.2799   -0.3621  -11.1997 C   0  0  1  0  0  4           0  0  0
   -5.0172    0.4453   -6.0183 C   0  0  0  0  0  4           0  0  0
   -5.5076    0.8533  -10.2907 C   0  0  0  0  0  4           0  0  0
   -5.6928   -1.6395  -10.4628 C   0  0  0  0  0  4           0  0  0
  1 11  2  0     0  0
  2 15  1  0     0  0
  2 33  1  0     0  0
  3 16  1  0     0  0
  3 35  1  0     0  0
  4 32  2  0     0  0
  5 34  1  0     0  0
  6 11  1  0     0  0
  7  8  1  0     0  0
  7 21  1  0     0  0
  8 18  2  0     0  0
  9 17  1  0     0  0
  9 19  2  0     0  0
 10 17  2  0     0  0
 10 20  1  0     0  0
 11 22  1  0     0  0
 12 18  1  0     0  0
 12 19  1  0     0  0
 13 23  1  0     0  0
 13 32  1  0     0  0
 14 36  1  0     0  0
 14 37  1  0     0  0
 14 38  1  0     0  0
 15 16  1  0     0  0
 15 25  2  0     0  0
 16 26  2  0     0  0
 18 27  1  0     0  0
 19 24  1  0     0  0
 20 24  2  0     0  0
 20 25  1  0     0  0
 21 27  2  0     0  0
 21 39  1  0     0  0
 22 28  1  0     0  0
 22 29  2  0     0  0
 23 28  2  0     0  0
 23 30  1  0     0  0
 24 26  1  0     0  0
 29 31  1  0     0  0
 30 31  2  0     0  0
 32 39  1  0     0  0
 33 41  1  0     0  0
 34 40  1  0     0  0
 36 41  1  0     0  0
 37 42  1  0     0  0
 38 43  1  0     0  0
 40 42  1  0     0  0
 40 43  1  0     0  0
M  CHG  2   6  -1  11   1
M  END
> <standard_type>
pIC50

> <# Confs.>
25

> <canonical_smiles>
O=C(CC1=CC(NC2=NC=NC3=C2C=C(OC)C(OCCCN4CCC(CO)CC4)=C3)=NN1)NC5=CC([N+]([O-])=O)=CC=C5

> <standard_relation>
=

> <Publication_ID>
nan

> <predicted_activity_value>
7.795880017344075

> <actual_activity_value>
7.4089353929735005

> <Compound>
29

> <standard_units>
nM

> hash
6972764257274872620

$$$$
29_
XXILIB    08252103423D 0   0.00000     0.00000

 43 47  0     1  0            999 V2000
    9.3660    4.9035   -4.1764 O   0  0  0  0  0  2           0  0  0
   -2.9823    0.2903   -4.7493 O   0  0  0  0  0  2           0  0  0
   -0.2536    0.2091   -4.8645 O   0  0  0  0  0  2           0  0  0
    5.9240    3.6884    2.3874 O   0  0  0  0  0  2           0  0  0
   -5.5948    0.9279  -13.2225 O   0  0  0  0  0  2           0  0  0
    8.8872    2.7710   -3.8696 O   0  5  0  0  0  1           0  0  0
    3.1007    1.4995    2.6096 N   0  0  0  0  0  3           0  0  0
    1.9217    1.1854    2.0532 N   0  0  0  0  0  3           0  0  0
   -0.6505    0.0000    1.1896 N   0  0  0  0  0  3           0  0  0
   -2.7555    0.0700    0.0433 N   0  0  0  0  0  3           0  0  0
    8.8993    3.9596   -3.5261 N   0  3  0  0  0  4           0  0  0
    1.4152   -0.0000    0.0000 N   0  0  0  0  0  3           0  0  0
    6.6640    2.4994    0.5293 N   0  0  0  0  0  3           0  0  0
   -5.2943   -0.5644   -8.2642 N   0  0  1  0  0  3           0  0  0
   -2.2944    0.1932   -3.5735 C   0  0  0  0  0  4           0  0  0
   -0.9040    0.1447   -3.6647 C   0  0  0  0  0  4           0  0  0
   -1.9894    0.0286    1.1432 C   0  0  0  0  0  4           0  0  0
    2.2530    0.5351    0.9268 C   0  0  0  0  0  4           0  0  0
    0.0000   -0.0000    0.0000 C   0  0  0  0  0  4           0  0  0
   -2.1184    0.0916   -1.1344 C   0  0  0  0  0  4           0  0  0
    4.1863    1.0763    1.8965 C   0  0  0  0  0  4           0  0  0
    8.3154    4.2735   -2.2512 C   0  0  0  0  0  4           0  0  0
    7.2072    3.5524   -0.2307 C   0  0  0  0  0  4           0  0  0
   -0.7118    0.0629   -1.2259 C   0  0  0  0  0  4           0  0  0
   -2.8799    0.1573   -2.3026 C   0  0  0  0  0  4           0  0  0
   -0.1198    0.1040   -2.5106 C   0  0  0  0  0  4           0  0  0
    3.6643    0.4511    0.7869 C   0  0  0  0  0  4           0  0  0
    7.7724    3.2450   -1.4742 C   0  0  0  0  0  4           0  0  0
    8.3040    5.5993   -1.8141 C   0  0  0  0  0  4           0  0  0
    7.1942    4.8808    0.2163 C   0  0  0  0  0  4           0  0  0
    7.7401    5.8962   -0.5745 C   0  0  0  0  0  4           0  0  0
    6.0696    2.6309    1.7754 C   0  0  0  0  0  4           0  0  0
   -4.4044    0.3382   -4.6278 C   0  0  0  0  0  4           0  0  0
   -6.0294   -0.2284  -12.5188 C   0  0  0  0  0  4           0  0  0
    0.0875    1.5217   -5.3029 C   0  0  0  0  0  4           0  0  0
   -4.6778   -0.7240   -6.9444 C   0  0  0  0  0  4           0  0  0
   -4.8360    0.6671   -8.9277 C   0  0  0  0  0  4           0  0  0
   -5.0081   -1.7417   -9.0990 C   0  0  0  0  0  4           0  0  0
    5.5822    1.3146    2.3376 C   0  0  0  0  0  4           0  0  0
   -5.2799   -0.3621  -11.1997 C   0  0  1  0  0  4           0  0  0
   -5.0172    0.4453   -6.0183 C   0  0  0  0  0  4           0  0  0
   -5.5076    0.8533  -10.2907 C   0  0  0  0  0  4           0  0  0
   -5.6928   -1.6395  -10.4628 C   0  0  0  0  0  4           0  0  0
  1 11  2  0     0  0
  2 15  1  0     0  0
  2 33  1  0     0  0
  3 16  1  0     0  0
  3 35  1  0     0  0
  4 32  2  0     0  0
  5 34  1  0     0  0
  6 11  1  0     0  0
  7  8  1  0     0  0
  7 21  1  0     0  0
  8 18  2  0     0  0
  9 17  1  0     0  0
  9 19  2  0     0  0
 10 17  2  0     0  0
 10 20  1  0     0  0
 11 22  1  0     0  0
 12 18  1  0     0  0
 12 19  1  0     0  0
 13 23  1  0     0  0
 13 32  1  0     0  0
 14 36  1  0     0  0
 14 37  1  0     0  0
 14 38  1  0     0  0
 15 16  1  0     0  0
 15 25  2  0     0  0
 16 26  2  0     0  0
 18 27  1  0     0  0
 19 24  1  0     0  0
 20 24  2  0     0  0
 20 25  1  0     0  0
 21 27  2  0     0  0
 21 39  1  0     0  0
 22 28  1  0     0  0
 22 29  2  0     0  0
 23 28  2  0     0  0
 23 30  1  0     0  0
 24 26  1  0     0  0
 29 31  1  0     0  0
 30 31  2  0     0  0
 32 39  1  0     0  0
 33 41  1  0     0  0
 34 40  1  0     0  0
 36 41  1  0     0  0
 37 42  1  0     0  0
 38 43  1  0     0  0
 40 42  1  0     0  0
 40 43  1  0     0  0
M  CHG  2   6  -1  11   1
M  END
> <standard_type>
pIC50

> <# Confs.>
25

> <canonical_smiles>
O=C(CC1=CC(NC2=NC=NC3=C2C=C(OC)C(OCCCN4CCC(CO)CC4)=C3)=NN1)NC5=CC([N+]([O-])=O)=CC=C5

> <standard_relation>
=

> <Publication_ID>
nan

> <predicted_activity_value>
7.795880017344075

> <actual_activity_value>
7.4089353929735005

> <Compound>
29

> <standard_units>
nM

> hash
6972764257274872620

$$$$
29_
XXILIB    08252103423D 0   0.00000     0.00000

 43 47  0     1  0            999 V2000
    9.3357   -4.9950   -4.2027 O   0  0  0  0  0  2           0  0  0
   -2.9823    0.2903   -4.7493 O   0  0  0  0  0  2           0  0  0
   -0.2536    0.2091   -4.8645 O   0  0  0  0  0  2           0  0  0
    5.8840   -3.7464    2.3499 O   0  0  0  0  0  2           0  0  0
   -5.5948    0.9279  -13.2225 O   0  0  0  0  0  2           0  0  0
    8.8871   -2.8564   -3.8922 O   0  5  0  0  0  1           0  0  0
    3.1007   -1.5103    2.6034 N   0  0  0  0  0  3           0  0  0
    1.9217   -1.1854    2.0532 N   0  0  0  0  0  3           0  0  0
   -0.6505    0.0000    1.1896 N   0  0  0  0  0  3           0  0  0
   -2.7555    0.0700    0.0433 N   0  0  0  0  0  3           0  0  0
    8.8795   -4.0461   -3.5522 N   0  3  0  0  0  4           0  0  0
    1.4152   -0.0000   -0.0000 N   0  0  0  0  0  3           0  0  0
    6.6487   -2.5637    0.4977 N   0  0  0  0  0  3           0  0  0
   -5.2943   -0.5644   -8.2642 N   0  0  1  0  0  3           0  0  0
   -2.2944    0.1932   -3.5735 C   0  0  0  0  0  4           0  0  0
   -0.9040    0.1447   -3.6647 C   0  0  0  0  0  4           0  0  0
   -1.9894    0.0286    1.1432 C   0  0  0  0  0  4           0  0  0
    2.2530   -0.5351    0.9268 C   0  0  0  0  0  4           0  0  0
    0.0000   -0.0000    0.0000 C   0  0  0  0  0  4           0  0  0
   -2.1184    0.0916   -1.1344 C   0  0  0  0  0  4           0  0  0
    4.1863   -1.1043    1.8804 C   0  0  0  0  0  4           0  0  0
    8.2850   -4.3548   -2.2809 C   0  0  0  0  0  4           0  0  0
    7.1718   -3.6237   -0.2667 C   0  0  0  0  0  4           0  0  0
   -0.7118    0.0629   -1.2259 C   0  0  0  0  0  4           0  0  0
   -2.8799    0.1573   -2.3026 C   0  0  0  0  0  4           0  0  0
   -0.1198    0.1040   -2.5106 C   0  0  0  0  0  4           0  0  0
    3.6643   -0.4559    0.7841 C   0  0  0  0  0  4           0  0  0
    7.7539   -3.3204   -1.5033 C   0  0  0  0  0  4           0  0  0
    8.2484   -5.6819   -1.8493 C   0  0  0  0  0  4           0  0  0
    7.1290   -4.9540    0.1725 C   0  0  0  0  0  4           0  0  0
    7.6662   -5.9749   -0.6172 C   0  0  0  0  0  4           0  0  0
    6.0416   -2.6904    1.7381 C   0  0  0  0  0  4           0  0  0
   -4.4044    0.3382   -4.6278 C   0  0  0  0  0  4           0  0  0
   -6.0294   -0.2284  -12.5188 C   0  0  0  0  0  4           0  0  0
   -0.0147   -1.0460   -5.4962 C   0  0  0  0  0  4           0  0  0
   -4.6778   -0.7240   -6.9444 C   0  0  0  0  0  4           0  0  0
   -4.8360    0.6671   -8.9277 C   0  0  0  0  0  4           0  0  0
   -5.0081   -1.7417   -9.0990 C   0  0  0  0  0  4           0  0  0
    5.5822   -1.3671    2.3073 C   0  0  0  0  0  4           0  0  0
   -5.2799   -0.3621  -11.1997 C   0  0  1  0  0  4           0  0  0
   -5.0172    0.4453   -6.0183 C   0  0  0  0  0  4           0  0  0
   -5.5076    0.8533  -10.2907 C   0  0  0  0  0  4           0  0  0
   -5.6928   -1.6395  -10.4628 C   0  0  0  0  0  4           0  0  0
  1 11  2  0     0  0
  2 15  1  0     0  0
  2 33  1  0     0  0
  3 16  1  0     0  0
  3 35  1  0     0  0
  4 32  2  0     0  0
  5 34  1  0     0  0
  6 11  1  0     0  0
  7  8  1  0     0  0
  7 21  1  0     0  0
  8 18  2  0     0  0
  9 17  1  0     0  0
  9 19  2  0     0  0
 10 17  2  0     0  0
 10 20  1  0     0  0
 11 22  1  0     0  0
 12 18  1  0     0  0
 12 19  1  0     0  0
 13 23  1  0     0  0
 13 32  1  0     0  0
 14 36  1  0     0  0
 14 37  1  0     0  0
 14 38  1  0     0  0
 15 16  1  0     0  0
 15 25  2  0     0  0
 16 26  2  0     0  0
 18 27  1  0     0  0
 19 24  1  0     0  0
 20 24  2  0     0  0
 20 25  1  0     0  0
 21 27  2  0     0  0
 21 39  1  0     0  0
 22 28  1  0     0  0
 22 29  2  0     0  0
 23 28  2  0     0  0
 23 30  1  0     0  0
 24 26  1  0     0  0
 29 31  1  0     0  0
 30 31  2  0     0  0
 32 39  1  0     0  0
 33 41  1  0     0  0
 34 40  1  0     0  0
 36 41  1  0     0  0
 37 42  1  0     0  0
 38 43  1  0     0  0
 40 42  1  0     0  0
 40 43  1  0     0  0
M  CHG  2   6  -1  11   1
M  END
> <standard_type>
pIC50

> <# Confs.>
25

> <canonical_smiles>
O=C(CC1=CC(NC2=NC=NC3=C2C=C(OC)C(OCCCN4CCC(CO)CC4)=C3)=NN1)NC5=CC([N+]([O-])=O)=CC=C5

> <standard_relation>
=

> <Publication_ID>
nan

> <predicted_activity_value>
7.795880017344075

> <actual_activity_value>
7.4089353929735005

> <Compound>
29

> <standard_units>
nM

> hash
6972764257274872620

$$$$
29_
XXILIB    08252103423D 0   0.00000     0.00000

 43 47  0     1  0            999 V2000
    9.3357   -6.1371    2.2244 O   0  0  0  0  0  2           0  0  0
   -2.9823    0.2903   -4.7493 O   0  0  0  0  0  2           0  0  0
   -0.2536    0.2091   -4.8645 O   0  0  0  0  0  2           0  0  0
    5.8840    0.1618    4.4194 O   0  0  0  0  0  2           0  0  0
   -5.1816    8.2989   -3.2200 O   0  0  0  0  0  2           0  0  0
    8.8871   -4.7989    0.5276 O   0  5  0  0  0  1           0  0  0
    3.1007    1.4995    2.6096 N   0  0  0  0  0  3           0  0  0
    1.9217    1.1854    2.0532 N   0  0  0  0  0  3           0  0  0
   -0.6505    0.0000    1.1896 N   0  0  0  0  0  3           0  0  0
   -2.7555    0.0700    0.0433 N   0  0  0  0  0  3           0  0  0
    8.8795   -5.0993    1.7280 N   0  3  0  0  0  4           0  0  0
    1.4152   -0.0000   -0.0000 N   0  0  0  0  0  3           0  0  0
    6.6487   -0.8508    2.4691 N   0  0  0  0  0  3           0  0  0
   -5.8559    3.5010   -5.0715 N   0  0  1  0  0  3           0  0  0
   -2.2944    0.1932   -3.5735 C   0  0  0  0  0  4           0  0  0
   -0.9040    0.1447   -3.6647 C   0  0  0  0  0  4           0  0  0
   -1.9894    0.0286    1.1432 C   0  0  0  0  0  4           0  0  0
    2.2530    0.5351    0.9268 C   0  0  0  0  0  4           0  0  0
    0.0000    0.0000    0.0000 C   0  0  0  0  0  4           0  0  0
   -2.1184    0.0916   -1.1344 C   0  0  0  0  0  4           0  0  0
    4.1863    1.0763    1.8965 C   0  0  0  0  0  4           0  0  0
    8.2850   -4.1527    2.6309 C   0  0  0  0  0  4           0  0  0
    7.1718   -2.0428    3.0049 C   0  0  0  0  0  4           0  0  0
   -0.7118    0.0629   -1.2259 C   0  0  0  0  0  4           0  0  0
   -2.8799    0.1573   -2.3026 C   0  0  0  0  0  4           0  0  0
   -0.1198    0.1040   -2.5106 C   0  0  0  0  0  4           0  0  0
    3.6643    0.4511    0.7869 C   0  0  0  0  0  4           0  0  0
    7.7539   -2.9621    2.1239 C   0  0  0  0  0  4           0  0  0
    8.2484   -4.4425    3.9960 C   0  0  0  0  0  4           0  0  0
    7.1290   -2.3276    4.3766 C   0  0  0  0  0  4           0  0  0
    7.6662   -3.5220    4.8659 C   0  0  0  0  0  4           0  0  0
    6.0416    0.1601    3.1991 C   0  0  0  0  0  4           0  0  0
   -4.2305    0.9805   -4.6765 C   0  0  0  0  0  4           0  0  0
   -6.1913    7.3134   -3.0447 C   0  0  0  0  0  4           0  0  0
   -0.0147   -1.0460   -5.4962 C   0  0  0  0  0  4           0  0  0
   -5.8205    2.4292   -6.0702 C   0  0  0  0  0  4           0  0  0
   -4.7664    4.4686   -5.2805 C   0  0  0  0  0  4           0  0  0
   -7.1630    4.1756   -5.1033 C   0  0  0  0  0  4           0  0  0
    5.5822    1.3146    2.3376 C   0  0  0  0  0  4           0  0  0
   -6.1353    6.2878   -4.1693 C   0  0  1  0  0  4           0  0  0
   -4.5044    1.6514   -6.0164 C   0  0  0  0  0  4           0  0  0
   -4.7806    5.5682   -4.2154 C   0  0  0  0  0  4           0  0  0
   -7.2597    5.2579   -4.0269 C   0  0  0  0  0  4           0  0  0
  1 11  2  0     0  0
  2 15  1  0     0  0
  2 33  1  0     0  0
  3 16  1  0     0  0
  3 35  1  0     0  0
  4 32  2  0     0  0
  5 34  1  0     0  0
  6 11  1  0     0  0
  7  8  1  0     0  0
  7 21  1  0     0  0
  8 18  2  0     0  0
  9 17  1  0     0  0
  9 19  2  0     0  0
 10 17  2  0     0  0
 10 20  1  0     0  0
 11 22  1  0     0  0
 12 18  1  0     0  0
 12 19  1  0     0  0
 13 23  1  0     0  0
 13 32  1  0     0  0
 14 36  1  0     0  0
 14 37  1  0     0  0
 14 38  1  0     0  0
 15 16  1  0     0  0
 15 25  2  0     0  0
 16 26  2  0     0  0
 18 27  1  0     0  0
 19 24  1  0     0  0
 20 24  2  0     0  0
 20 25  1  0     0  0
 21 27  2  0     0  0
 21 39  1  0     0  0
 22 28  1  0     0  0
 22 29  2  0     0  0
 23 28  2  0     0  0
 23 30  1  0     0  0
 24 26  1  0     0  0
 29 31  1  0     0  0
 30 31  2  0     0  0
 32 39  1  0     0  0
 33 41  1  0     0  0
 34 40  1  0     0  0
 36 41  1  0     0  0
 37 42  1  0     0  0
 38 43  1  0     0  0
 40 42  1  0     0  0
 40 43  1  0     0  0
M  CHG  2   6  -1  11   1
M  END
> <standard_type>
pIC50

> <# Confs.>
25

> <canonical_smiles>
O=C(CC1=CC(NC2=NC=NC3=C2C=C(OC)C(OCCCN4CCC(CO)CC4)=C3)=NN1)NC5=CC([N+]([O-])=O)=CC=C5

> <standard_relation>
=

> <Publication_ID>
nan

> <predicted_activity_value>
7.795880017344075

> <actual_activity_value>
7.4089353929735005

> <Compound>
29

> <standard_units>
nM

> hash
6972764257274872620

$$$$
29_
XXILIB    08252103423D 0   0.00000     0.00000

 43 47  0     1  0            999 V2000
    9.3357   -4.9950   -4.2027 O   0  0  0  0  0  2           0  0  0
   -2.9823    0.2903   -4.7493 O   0  0  0  0  0  2           0  0  0
   -0.2536    0.2091   -4.8645 O   0  0  0  0  0  2           0  0  0
    5.8840   -3.7464    2.3499 O   0  0  0  0  0  2           0  0  0
   -5.1816    8.2989   -3.2200 O   0  0  0  0  0  2           0  0  0
    8.8871   -2.8564   -3.8922 O   0  5  0  0  0  1           0  0  0
    3.1007   -1.5103    2.6034 N   0  0  0  0  0  3           0  0  0
    1.9217   -1.1854    2.0532 N   0  0  0  0  0  3           0  0  0
   -0.6505    0.0000    1.1896 N   0  0  0  0  0  3           0  0  0
   -2.7555    0.0700    0.0433 N   0  0  0  0  0  3           0  0  0
    8.8795   -4.0461   -3.5522 N   0  3  0  0  0  4           0  0  0
    1.4152   -0.0000   -0.0000 N   0  0  0  0  0  3           0  0  0
    6.6487   -2.5637    0.4977 N   0  0  0  0  0  3           0  0  0
   -5.8559    3.5010   -5.0715 N   0  0  1  0  0  3           0  0  0
   -2.2944    0.1932   -3.5735 C   0  0  0  0  0  4           0  0  0
   -0.9040    0.1447   -3.6647 C   0  0  0  0  0  4           0  0  0
   -1.9894    0.0286    1.1432 C   0  0  0  0  0  4           0  0  0
    2.2530   -0.5351    0.9268 C   0  0  0  0  0  4           0  0  0
    0.0000    0.0000    0.0000 C   0  0  0  0  0  4           0  0  0
   -2.1184    0.0916   -1.1344 C   0  0  0  0  0  4           0  0  0
    4.1863   -1.1043    1.8804 C   0  0  0  0  0  4           0  0  0
    8.2850   -4.3548   -2.2809 C   0  0  0  0  0  4           0  0  0
    7.1718   -3.6237   -0.2667 C   0  0  0  0  0  4           0  0  0
   -0.7118    0.0629   -1.2259 C   0  0  0  0  0  4           0  0  0
   -2.8799    0.1573   -2.3026 C   0  0  0  0  0  4           0  0  0
   -0.1198    0.1040   -2.5106 C   0  0  0  0  0  4           0  0  0
    3.6643   -0.4559    0.7841 C   0  0  0  0  0  4           0  0  0
    7.7539   -3.3204   -1.5033 C   0  0  0  0  0  4           0  0  0
    8.2484   -5.6819   -1.8493 C   0  0  0  0  0  4           0  0  0
    7.1290   -4.9540    0.1725 C   0  0  0  0  0  4           0  0  0
    7.6662   -5.9749   -0.6172 C   0  0  0  0  0  4           0  0  0
    6.0416   -2.6904    1.7381 C   0  0  0  0  0  4           0  0  0
   -4.2305    0.9805   -4.6765 C   0  0  0  0  0  4           0  0  0
   -6.1913    7.3134   -3.0447 C   0  0  0  0  0  4           0  0  0
   -0.0147   -1.0460   -5.4962 C   0  0  0  0  0  4           0  0  0
   -5.8205    2.4292   -6.0702 C   0  0  0  0  0  4           0  0  0
   -4.7664    4.4686   -5.2805 C   0  0  0  0  0  4           0  0  0
   -7.1630    4.1756   -5.1033 C   0  0  0  0  0  4           0  0  0
    5.5822   -1.3671    2.3073 C   0  0  0  0  0  4           0  0  0
   -6.1353    6.2878   -4.1693 C   0  0  1  0  0  4           0  0  0
   -4.5044    1.6514   -6.0164 C   0  0  0  0  0  4           0  0  0
   -4.7806    5.5682   -4.2154 C   0  0  0  0  0  4           0  0  0
   -7.2597    5.2579   -4.0269 C   0  0  0  0  0  4           0  0  0
  1 11  2  0     0  0
  2 15  1  0     0  0
  2 33  1  0     0  0
  3 16  1  0     0  0
  3 35  1  0     0  0
  4 32  2  0     0  0
  5 34  1  0     0  0
  6 11  1  0     0  0
  7  8  1  0     0  0
  7 21  1  0     0  0
  8 18  2  0     0  0
  9 17  1  0     0  0
  9 19  2  0     0  0
 10 17  2  0     0  0
 10 20  1  0     0  0
 11 22  1  0     0  0
 12 18  1  0     0  0
 12 19  1  0     0  0
 13 23  1  0     0  0
 13 32  1  0     0  0
 14 36  1  0     0  0
 14 37  1  0     0  0
 14 38  1  0     0  0
 15 16  1  0     0  0
 15 25  2  0     0  0
 16 26  2  0     0  0
 18 27  1  0     0  0
 19 24  1  0     0  0
 20 24  2  0     0  0
 20 25  1  0     0  0
 21 27  2  0     0  0
 21 39  1  0     0  0
 22 28  1  0     0  0
 22 29  2  0     0  0
 23 28  2  0     0  0
 23 30  1  0     0  0
 24 26  1  0     0  0
 29 31  1  0     0  0
 30 31  2  0     0  0
 32 39  1  0     0  0
 33 41  1  0     0  0
 34 40  1  0     0  0
 36 41  1  0     0  0
 37 42  1  0     0  0
 38 43  1  0     0  0
 40 42  1  0     0  0
 40 43  1  0     0  0
M  CHG  2   6  -1  11   1
M  END
> <standard_type>
pIC50

> <# Confs.>
25

> <canonical_smiles>
O=C(CC1=CC(NC2=NC=NC3=C2C=C(OC)C(OCCCN4CCC(CO)CC4)=C3)=NN1)NC5=CC([N+]([O-])=O)=CC=C5

> <standard_relation>
=

> <Publication_ID>
nan

> <predicted_activity_value>
7.795880017344075

> <actual_activity_value>
7.4089353929735005

> <Compound>
29

> <standard_units>
nM

> hash
6972764257274872620

$$$$
29_
XXILIB    08252103423D 0   0.00000     0.00000

 43 47  0     1  0            999 V2000
    9.3357   -6.1371    2.2244 O   0  0  0  0  0  2           0  0  0
   -2.9823    0.2903   -4.7493 O   0  0  0  0  0  2           0  0  0
   -0.2536    0.2091   -4.8645 O   0  0  0  0  0  2           0  0  0
    5.8840    0.1618    4.4194 O   0  0  0  0  0  2           0  0  0
  -10.7064    3.0630   -6.7402 O   0  0  0  0  0  2           0  0  0
    8.8871   -4.7989    0.5276 O   0  5  0  0  0  1           0  0  0
    3.1007    1.4995    2.6096 N   0  0  0  0  0  3           0  0  0
    1.9217    1.1854    2.0532 N   0  0  0  0  0  3           0  0  0
   -0.6505    0.0000    1.1896 N   0  0  0  0  0  3           0  0  0
   -2.7555    0.0700    0.0433 N   0  0  0  0  0  3           0  0  0
    8.8795   -5.0993    1.7280 N   0  3  0  0  0  4           0  0  0
    1.4152   -0.0000   -0.0000 N   0  0  0  0  0  3           0  0  0
    6.6487   -0.8508    2.4691 N   0  0  0  0  0  3           0  0  0
   -7.0537   -0.5314   -5.9404 N   0  0  1  0  0  3           0  0  0
   -2.2944    0.1932   -3.5735 C   0  0  0  0  0  4           0  0  0
   -0.9040    0.1447   -3.6647 C   0  0  0  0  0  4           0  0  0
   -1.9894    0.0286    1.1432 C   0  0  0  0  0  4           0  0  0
    2.2530    0.5351    0.9268 C   0  0  0  0  0  4           0  0  0
    0.0000    0.0000    0.0000 C   0  0  0  0  0  4           0  0  0
   -2.1184    0.0916   -1.1344 C   0  0  0  0  0  4           0  0  0
    4.1863    1.0763    1.8965 C   0  0  0  0  0  4           0  0  0
    8.2850   -4.1527    2.6309 C   0  0  0  0  0  4           0  0  0
    7.1718   -2.0428    3.0049 C   0  0  0  0  0  4           0  0  0
   -0.7118    0.0629   -1.2259 C   0  0  0  0  0  4           0  0  0
   -2.8799    0.1573   -2.3026 C   0  0  0  0  0  4           0  0  0
   -0.1198    0.1040   -2.5106 C   0  0  0  0  0  4           0  0  0
    3.6643    0.4511    0.7869 C   0  0  0  0  0  4           0  0  0
    7.7539   -2.9621    2.1239 C   0  0  0  0  0  4           0  0  0
    8.2484   -4.4425    3.9960 C   0  0  0  0  0  4           0  0  0
    7.1290   -2.3276    4.3766 C   0  0  0  0  0  4           0  0  0
    7.6662   -3.5220    4.8659 C   0  0  0  0  0  4           0  0  0
    6.0416    0.1601    3.1991 C   0  0  0  0  0  4           0  0  0
   -4.2804   -0.3051   -4.7535 C   0  0  0  0  0  4           0  0  0
  -10.6343    1.9044   -5.9194 C   0  0  0  0  0  4           0  0  0
    0.0875    1.5217   -5.3029 C   0  0  0  0  0  4           0  0  0
   -5.9711   -1.4504   -6.3025 C   0  0  0  0  0  4           0  0  0
   -7.0547    0.6648   -6.7983 C   0  0  0  0  0  4           0  0  0
   -8.3489   -1.2254   -6.0149 C   0  0  0  0  0  4           0  0  0
    5.5822    1.3146    2.3376 C   0  0  0  0  0  4           0  0  0
   -9.5407    0.9675   -6.4155 C   0  0  1  0  0  4           0  0  0
   -4.5991   -0.7885   -6.1625 C   0  0  0  0  0  4           0  0  0
   -8.1625    1.6422   -6.3966 C   0  0  0  0  0  4           0  0  0
   -9.4971   -0.3142   -5.5785 C   0  0  0  0  0  4           0  0  0
  1 11  2  0     0  0
  2 15  1  0     0  0
  2 33  1  0     0  0
  3 16  1  0     0  0
  3 35  1  0     0  0
  4 32  2  0     0  0
  5 34  1  0     0  0
  6 11  1  0     0  0
  7  8  1  0     0  0
  7 21  1  0     0  0
  8 18  2  0     0  0
  9 17  1  0     0  0
  9 19  2  0     0  0
 10 17  2  0     0  0
 10 20  1  0     0  0
 11 22  1  0     0  0
 12 18  1  0     0  0
 12 19  1  0     0  0
 13 23  1  0     0  0
 13 32  1  0     0  0
 14 36  1  0     0  0
 14 37  1  0     0  0
 14 38  1  0     0  0
 15 16  1  0     0  0
 15 25  2  0     0  0
 16 26  2  0     0  0
 18 27  1  0     0  0
 19 24  1  0     0  0
 20 24  2  0     0  0
 20 25  1  0     0  0
 21 27  2  0     0  0
 21 39  1  0     0  0
 22 28  1  0     0  0
 22 29  2  0     0  0
 23 28  2  0     0  0
 23 30  1  0     0  0
 24 26  1  0     0  0
 29 31  1  0     0  0
 30 31  2  0     0  0
 32 39  1  0     0  0
 33 41  1  0     0  0
 34 40  1  0     0  0
 36 41  1  0     0  0
 37 42  1  0     0  0
 38 43  1  0     0  0
 40 42  1  0     0  0
 40 43  1  0     0  0
M  CHG  2   6  -1  11   1
M  END
> <standard_type>
pIC50

> <# Confs.>
25

> <canonical_smiles>
O=C(CC1=CC(NC2=NC=NC3=C2C=C(OC)C(OCCCN4CCC(CO)CC4)=C3)=NN1)NC5=CC([N+]([O-])=O)=CC=C5

> <standard_relation>
=

> <Publication_ID>
nan

> <predicted_activity_value>
7.795880017344075

> <actual_activity_value>
7.4089353929735005

> <Compound>
29

> <standard_units>
nM

> hash
6972764257274872620

$$$$
29_
XXILIB    08252103423D 0   0.00000     0.00000

 43 47  0     1  0            999 V2000
    9.3660    4.9035   -4.1764 O   0  0  0  0  0  2           0  0  0
   -2.9823    0.2903   -4.7493 O   0  0  0  0  0  2           0  0  0
   -0.2536    0.2091   -4.8645 O   0  0  0  0  0  2           0  0  0
    5.9240    3.6884    2.3874 O   0  0  0  0  0  2           0  0  0
   -5.1816    8.2989   -3.2200 O   0  0  0  0  0  2           0  0  0
    8.8872    2.7710   -3.8696 O   0  5  0  0  0  1           0  0  0
    3.1007    1.4995    2.6096 N   0  0  0  0  0  3           0  0  0
    1.9217    1.1854    2.0532 N   0  0  0  0  0  3           0  0  0
   -0.6505    0.0000    1.1896 N   0  0  0  0  0  3           0  0  0
   -2.7555    0.0700    0.0433 N   0  0  0  0  0  3           0  0  0
    8.8993    3.9596   -3.5261 N   0  3  0  0  0  4           0  0  0
    1.4152   -0.0000    0.0000 N   0  0  0  0  0  3           0  0  0
    6.6640    2.4994    0.5293 N   0  0  0  0  0  3           0  0  0
   -5.8559    3.5010   -5.0715 N   0  0  1  0  0  3           0  0  0
   -2.2944    0.1932   -3.5735 C   0  0  0  0  0  4           0  0  0
   -0.9040    0.1447   -3.6647 C   0  0  0  0  0  4           0  0  0
   -1.9894    0.0286    1.1432 C   0  0  0  0  0  4           0  0  0
    2.2530    0.5351    0.9268 C   0  0  0  0  0  4           0  0  0
    0.0000    0.0000    0.0000 C   0  0  0  0  0  4           0  0  0
   -2.1184    0.0916   -1.1344 C   0  0  0  0  0  4           0  0  0
    4.1863    1.0763    1.8965 C   0  0  0  0  0  4           0  0  0
    8.3154    4.2735   -2.2512 C   0  0  0  0  0  4           0  0  0
    7.2072    3.5524   -0.2307 C   0  0  0  0  0  4           0  0  0
   -0.7118    0.0629   -1.2259 C   0  0  0  0  0  4           0  0  0
   -2.8799    0.1573   -2.3026 C   0  0  0  0  0  4           0  0  0
   -0.1198    0.1040   -2.5106 C   0  0  0  0  0  4           0  0  0
    3.6643    0.4511    0.7869 C   0  0  0  0  0  4           0  0  0
    7.7724    3.2450   -1.4742 C   0  0  0  0  0  4           0  0  0
    8.3040    5.5993   -1.8141 C   0  0  0  0  0  4           0  0  0
    7.1942    4.8808    0.2163 C   0  0  0  0  0  4           0  0  0
    7.7401    5.8962   -0.5745 C   0  0  0  0  0  4           0  0  0
    6.0696    2.6309    1.7754 C   0  0  0  0  0  4           0  0  0
   -4.2305    0.9805   -4.6765 C   0  0  0  0  0  4           0  0  0
   -6.1913    7.3134   -3.0447 C   0  0  0  0  0  4           0  0  0
    0.0875    1.5217   -5.3029 C   0  0  0  0  0  4           0  0  0
   -5.8205    2.4292   -6.0702 C   0  0  0  0  0  4           0  0  0
   -4.7664    4.4686   -5.2805 C   0  0  0  0  0  4           0  0  0
   -7.1630    4.1756   -5.1033 C   0  0  0  0  0  4           0  0  0
    5.5822    1.3146    2.3376 C   0  0  0  0  0  4           0  0  0
   -6.1353    6.2878   -4.1693 C   0  0  1  0  0  4           0  0  0
   -4.5044    1.6514   -6.0164 C   0  0  0  0  0  4           0  0  0
   -4.7806    5.5682   -4.2154 C   0  0  0  0  0  4           0  0  0
   -7.2597    5.2579   -4.0269 C   0  0  0  0  0  4           0  0  0
  1 11  2  0     0  0
  2 15  1  0     0  0
  2 33  1  0     0  0
  3 16  1  0     0  0
  3 35  1  0     0  0
  4 32  2  0     0  0
  5 34  1  0     0  0
  6 11  1  0     0  0
  7  8  1  0     0  0
  7 21  1  0     0  0
  8 18  2  0     0  0
  9 17  1  0     0  0
  9 19  2  0     0  0
 10 17  2  0     0  0
 10 20  1  0     0  0
 11 22  1  0     0  0
 12 18  1  0     0  0
 12 19  1  0     0  0
 13 23  1  0     0  0
 13 32  1  0     0  0
 14 36  1  0     0  0
 14 37  1  0     0  0
 14 38  1  0     0  0
 15 16  1  0     0  0
 15 25  2  0     0  0
 16 26  2  0     0  0
 18 27  1  0     0  0
 19 24  1  0     0  0
 20 24  2  0     0  0
 20 25  1  0     0  0
 21 27  2  0     0  0
 21 39  1  0     0  0
 22 28  1  0     0  0
 22 29  2  0     0  0
 23 28  2  0     0  0
 23 30  1  0     0  0
 24 26  1  0     0  0
 29 31  1  0     0  0
 30 31  2  0     0  0
 32 39  1  0     0  0
 33 41  1  0     0  0
 34 40  1  0     0  0
 36 41  1  0     0  0
 37 42  1  0     0  0
 38 43  1  0     0  0
 40 42  1  0     0  0
 40 43  1  0     0  0
M  CHG  2   6  -1  11   1
M  END
> <standard_type>
pIC50

> <# Confs.>
25

> <canonical_smiles>
O=C(CC1=CC(NC2=NC=NC3=C2C=C(OC)C(OCCCN4CCC(CO)CC4)=C3)=NN1)NC5=CC([N+]([O-])=O)=CC=C5

> <standard_relation>
=

> <Publication_ID>
nan

> <predicted_activity_value>
7.795880017344075

> <actual_activity_value>
7.4089353929735005

> <Compound>
29

> <standard_units>
nM

> hash
6972764257274872620

$$$$
29_
XXILIB    08252103423D 0   0.00000     0.00000

 43 47  0     1  0            999 V2000
    9.3660    4.9035   -4.1764 O   0  0  0  0  0  2           0  0  0
   -2.9823    0.2903   -4.7493 O   0  0  0  0  0  2           0  0  0
   -0.2536    0.2091   -4.8645 O   0  0  0  0  0  2           0  0  0
    5.9240    3.6884    2.3874 O   0  0  0  0  0  2           0  0  0
  -10.7064    3.0630   -6.7402 O   0  0  0  0  0  2           0  0  0
    8.8872    2.7710   -3.8696 O   0  5  0  0  0  1           0  0  0
    3.1007    1.4995    2.6096 N   0  0  0  0  0  3           0  0  0
    1.9217    1.1854    2.0532 N   0  0  0  0  0  3           0  0  0
   -0.6505    0.0000    1.1896 N   0  0  0  0  0  3           0  0  0
   -2.7555    0.0700    0.0433 N   0  0  0  0  0  3           0  0  0
    8.8993    3.9596   -3.5261 N   0  3  0  0  0  4           0  0  0
    1.4152   -0.0000    0.0000 N   0  0  0  0  0  3           0  0  0
    6.6640    2.4994    0.5293 N   0  0  0  0  0  3           0  0  0
   -7.0537   -0.5314   -5.9404 N   0  0  1  0  0  3           0  0  0
   -2.2944    0.1932   -3.5735 C   0  0  0  0  0  4           0  0  0
   -0.9040    0.1447   -3.6647 C   0  0  0  0  0  4           0  0  0
   -1.9894    0.0286    1.1432 C   0  0  0  0  0  4           0  0  0
    2.2530    0.5351    0.9268 C   0  0  0  0  0  4           0  0  0
    0.0000    0.0000    0.0000 C   0  0  0  0  0  4           0  0  0
   -2.1184    0.0916   -1.1344 C   0  0  0  0  0  4           0  0  0
    4.1863    1.0763    1.8965 C   0  0  0  0  0  4           0  0  0
    8.3154    4.2735   -2.2512 C   0  0  0  0  0  4           0  0  0
    7.2072    3.5524   -0.2307 C   0  0  0  0  0  4           0  0  0
   -0.7118    0.0629   -1.2259 C   0  0  0  0  0  4           0  0  0
   -2.8799    0.1573   -2.3026 C   0  0  0  0  0  4           0  0  0
   -0.1198    0.1040   -2.5106 C   0  0  0  0  0  4           0  0  0
    3.6643    0.4511    0.7869 C   0  0  0  0  0  4           0  0  0
    7.7724    3.2450   -1.4742 C   0  0  0  0  0  4           0  0  0
    8.3040    5.5993   -1.8141 C   0  0  0  0  0  4           0  0  0
    7.1942    4.8808    0.2163 C   0  0  0  0  0  4           0  0  0
    7.7401    5.8962   -0.5745 C   0  0  0  0  0  4           0  0  0
    6.0696    2.6309    1.7754 C   0  0  0  0  0  4           0  0  0
   -4.2804   -0.3051   -4.7535 C   0  0  0  0  0  4           0  0  0
  -10.6343    1.9044   -5.9194 C   0  0  0  0  0  4           0  0  0
    0.0875    1.5217   -5.3029 C   0  0  0  0  0  4           0  0  0
   -5.9711   -1.4504   -6.3025 C   0  0  0  0  0  4           0  0  0
   -7.0547    0.6648   -6.7983 C   0  0  0  0  0  4           0  0  0
   -8.3489   -1.2254   -6.0149 C   0  0  0  0  0  4           0  0  0
    5.5822    1.3146    2.3376 C   0  0  0  0  0  4           0  0  0
   -9.5407    0.9675   -6.4155 C   0  0  1  0  0  4           0  0  0
   -4.5991   -0.7885   -6.1625 C   0  0  0  0  0  4           0  0  0
   -8.1625    1.6422   -6.3966 C   0  0  0  0  0  4           0  0  0
   -9.4971   -0.3142   -5.5785 C   0  0  0  0  0  4           0  0  0
  1 11  2  0     0  0
  2 15  1  0     0  0
  2 33  1  0     0  0
  3 16  1  0     0  0
  3 35  1  0     0  0
  4 32  2  0     0  0
  5 34  1  0     0  0
  6 11  1  0     0  0
  7  8  1  0     0  0
  7 21  1  0     0  0
  8 18  2  0     0  0
  9 17  1  0     0  0
  9 19  2  0     0  0
 10 17  2  0     0  0
 10 20  1  0     0  0
 11 22  1  0     0  0
 12 18  1  0     0  0
 12 19  1  0     0  0
 13 23  1  0     0  0
 13 32  1  0     0  0
 14 36  1  0     0  0
 14 37  1  0     0  0
 14 38  1  0     0  0
 15 16  1  0     0  0
 15 25  2  0     0  0
 16 26  2  0     0  0
 18 27  1  0     0  0
 19 24  1  0     0  0
 20 24  2  0     0  0
 20 25  1  0     0  0
 21 27  2  0     0  0
 21 39  1  0     0  0
 22 28  1  0     0  0
 22 29  2  0     0  0
 23 28  2  0     0  0
 23 30  1  0     0  0
 24 26  1  0     0  0
 29 31  1  0     0  0
 30 31  2  0     0  0
 32 39  1  0     0  0
 33 41  1  0     0  0
 34 40  1  0     0  0
 36 41  1  0     0  0
 37 42  1  0     0  0
 38 43  1  0     0  0
 40 42  1  0     0  0
 40 43  1  0     0  0
M  CHG  2   6  -1  11   1
M  END
> <standard_type>
pIC50

> <# Confs.>
25

> <canonical_smiles>
O=C(CC1=CC(NC2=NC=NC3=C2C=C(OC)C(OCCCN4CCC(CO)CC4)=C3)=NN1)NC5=CC([N+]([O-])=O)=CC=C5

> <standard_relation>
=

> <Publication_ID>
nan

> <predicted_activity_value>
7.795880017344075

> <actual_activity_value>
7.4089353929735005

> <Compound>
29

> <standard_units>
nM

> hash
6972764257274872620

$$$$
29_
XXILIB    08252103423D 0   0.00000     0.00000

 43 47  0     1  0            999 V2000
    6.6385   -7.4547    6.3414 O   0  0  0  0  0  2           0  0  0
   -2.9823    0.2903   -4.7493 O   0  0  0  0  0  2           0  0  0
   -0.2536    0.2091   -4.8645 O   0  0  0  0  0  2           0  0  0
    5.4843   -0.1421    5.0759 O   0  0  0  0  0  2           0  0  0
   -8.6533    6.5456   -4.5931 O   0  0  0  0  0  2           0  0  0
    6.6600   -6.9688    4.1886 O   0  5  0  0  0  1           0  0  0
    3.1007   -0.0062    3.0098 N   0  0  0  0  0  3           0  0  0
    1.9217   -0.0000    2.3708 N   0  0  0  0  0  3           0  0  0
   -0.6505    0.0000    1.1896 N   0  0  0  0  0  3           0  0  0
   -2.7555    0.0700    0.0433 N   0  0  0  0  0  3           0  0  0
    6.5537   -6.6733    5.3854 N   0  3  0  0  0  4           0  0  0
    1.4152   -0.0000    0.0000 N   0  0  0  0  0  3           0  0  0
    5.8664   -2.1059    3.8880 N   0  0  0  0  0  3           0  0  0
   -7.0451    1.6625   -5.2793 N   0  0  1  0  0  3           0  0  0
   -2.2944    0.1932   -3.5735 C   0  0  0  0  0  4           0  0  0
   -0.9040    0.1447   -3.6647 C   0  0  0  0  0  4           0  0  0
   -1.9894    0.0286    1.1432 C   0  0  0  0  0  4           0  0  0
    2.2530    0.0000    1.0702 C   0  0  0  0  0  4           0  0  0
    0.0000    0.0000    0.0000 C   0  0  0  0  0  4           0  0  0
   -2.1184    0.0916   -1.1344 C   0  0  0  0  0  4           0  0  0
    4.1863   -0.0161    2.1806 C   0  0  0  0  0  4           0  0  0
    6.3092   -5.2914    5.6943 C   0  0  0  0  0  4           0  0  0
    5.9629   -3.0189    4.9551 C   0  0  0  0  0  4           0  0  0
   -0.7118    0.0629   -1.2259 C   0  0  0  0  0  4           0  0  0
   -2.8799    0.1573   -2.3026 C   0  0  0  0  0  4           0  0  0
   -0.1198    0.1040   -2.5106 C   0  0  0  0  0  4           0  0  0
    3.6643   -0.0028    0.9070 C   0  0  0  0  0  4           0  0  0
    6.2048   -4.3642    4.6522 C   0  0  0  0  0  4           0  0  0
    6.1792   -4.9035    7.0290 C   0  0  0  0  0  4           0  0  0
    5.8287   -2.6220    6.2926 C   0  0  0  0  0  4           0  0  0
    5.9377   -3.5622    7.3215 C   0  0  0  0  0  4           0  0  0
    5.6313   -0.7449    4.0133 C   0  0  0  0  0  4           0  0  0
   -4.4044    0.3382   -4.6278 C   0  0  0  0  0  4           0  0  0
   -9.0670    5.2935   -4.0617 C   0  0  0  0  0  4           0  0  0
   -0.0147   -1.0460   -5.4962 C   0  0  0  0  0  4           0  0  0
   -6.5457    0.5051   -6.0267 C   0  0  0  0  0  4           0  0  0
   -6.5541    2.9265   -5.8520 C   0  0  0  0  0  4           0  0  0
   -8.5159    1.6437   -5.2463 C   0  0  0  0  0  4           0  0  0
    5.5822   -0.0303    2.6818 C   0  0  0  0  0  4           0  0  0
   -8.5763    4.1526   -4.9433 C   0  0  1  0  0  4           0  0  0
   -5.0172    0.4453   -6.0183 C   0  0  0  0  0  4           0  0  0
   -7.0455    4.1342   -5.0497 C   0  0  0  0  0  4           0  0  0
   -9.0712    2.8024   -4.4167 C   0  0  0  0  0  4           0  0  0
  1 11  2  0     0  0
  2 15  1  0     0  0
  2 33  1  0     0  0
  3 16  1  0     0  0
  3 35  1  0     0  0
  4 32  2  0     0  0
  5 34  1  0     0  0
  6 11  1  0     0  0
  7  8  1  0     0  0
  7 21  1  0     0  0
  8 18  2  0     0  0
  9 17  1  0     0  0
  9 19  2  0     0  0
 10 17  2  0     0  0
 10 20  1  0     0  0
 11 22  1  0     0  0
 12 18  1  0     0  0
 12 19  1  0     0  0
 13 23  1  0     0  0
 13 32  1  0     0  0
 14 36  1  0     0  0
 14 37  1  0     0  0
 14 38  1  0     0  0
 15 16  1  0     0  0
 15 25  2  0     0  0
 16 26  2  0     0  0
 18 27  1  0     0  0
 19 24  1  0     0  0
 20 24  2  0     0  0
 20 25  1  0     0  0
 21 27  2  0     0  0
 21 39  1  0     0  0
 22 28  1  0     0  0
 22 29  2  0     0  0
 23 28  2  0     0  0
 23 30  1  0     0  0
 24 26  1  0     0  0
 29 31  1  0     0  0
 30 31  2  0     0  0
 32 39  1  0     0  0
 33 41  1  0     0  0
 34 40  1  0     0  0
 36 41  1  0     0  0
 37 42  1  0     0  0
 38 43  1  0     0  0
 40 42  1  0     0  0
 40 43  1  0     0  0
M  CHG  2   6  -1  11   1
M  END
> <standard_type>
pIC50

> <# Confs.>
25

> <canonical_smiles>
O=C(CC1=CC(NC2=NC=NC3=C2C=C(OC)C(OCCCN4CCC(CO)CC4)=C3)=NN1)NC5=CC([N+]([O-])=O)=CC=C5

> <standard_relation>
=

> <Publication_ID>
nan

> <predicted_activity_value>
7.795880017344075

> <actual_activity_value>
7.4089353929735005

> <Compound>
29

> <standard_units>
nM

> hash
6972764257274872620

$$$$
29_
XXILIB    08252103423D 0   0.00000     0.00000

 43 47  0     1  0            999 V2000
   11.2742   -5.0198   -2.5803 O   0  0  0  0  0  2           0  0  0
   -2.9823    0.2903   -4.7493 O   0  0  0  0  0  2           0  0  0
   -0.2536    0.2091   -4.8645 O   0  0  0  0  0  2           0  0  0
    5.4650   -3.7440    2.0059 O   0  0  0  0  0  2           0  0  0
   -8.6533    6.5456   -4.5931 O   0  0  0  0  0  2           0  0  0
   11.0658   -2.8813   -2.0757 O   0  5  0  0  0  1           0  0  0
    3.1007   -1.5103    2.6034 N   0  0  0  0  0  3           0  0  0
    1.9217   -1.1854    2.0532 N   0  0  0  0  0  3           0  0  0
   -0.6505    0.0000    1.1896 N   0  0  0  0  0  3           0  0  0
   -2.7555    0.0700    0.0433 N   0  0  0  0  0  3           0  0  0
   10.7236   -4.0687   -2.0112 N   0  3  0  0  0  4           0  0  0
    1.4152   -0.0000   -0.0000 N   0  0  0  0  0  3           0  0  0
    7.1560   -2.5699    0.9216 N   0  0  0  0  0  3           0  0  0
   -7.0451    1.6625   -5.2793 N   0  0  1  0  0  3           0  0  0
   -2.2944    0.1932   -3.5735 C   0  0  0  0  0  4           0  0  0
   -0.9040    0.1447   -3.6647 C   0  0  0  0  0  4           0  0  0
   -1.9894    0.0286    1.1432 C   0  0  0  0  0  4           0  0  0
    2.2530   -0.5351    0.9268 C   0  0  0  0  0  4           0  0  0
    0.0000    0.0000    0.0000 C   0  0  0  0  0  4           0  0  0
   -2.1184    0.0916   -1.1344 C   0  0  0  0  0  4           0  0  0
    4.1863   -1.1043    1.8804 C   0  0  0  0  0  4           0  0  0
    9.5785   -4.3716   -1.1978 C   0  0  0  0  0  4           0  0  0
    7.8000   -3.6314    0.2581 C   0  0  0  0  0  4           0  0  0
   -0.7118    0.0629   -1.2259 C   0  0  0  0  0  4           0  0  0
   -2.8799    0.1573   -2.3026 C   0  0  0  0  0  4           0  0  0
   -0.1198    0.1040   -2.5106 C   0  0  0  0  0  4           0  0  0
    3.6643   -0.4559    0.7841 C   0  0  0  0  0  4           0  0  0
    8.9177   -3.3346   -0.5310 C   0  0  0  0  0  4           0  0  0
    9.1484   -5.6954   -1.0914 C   0  0  0  0  0  4           0  0  0
    7.3605   -4.9577    0.3679 C   0  0  0  0  0  4           0  0  0
    8.0343   -5.9818   -0.3042 C   0  0  0  0  0  4           0  0  0
    6.0416   -2.6904    1.7381 C   0  0  0  0  0  4           0  0  0
   -4.4044    0.3382   -4.6278 C   0  0  0  0  0  4           0  0  0
   -9.0670    5.2935   -4.0617 C   0  0  0  0  0  4           0  0  0
   -0.0147   -1.0460   -5.4962 C   0  0  0  0  0  4           0  0  0
   -6.5457    0.5051   -6.0267 C   0  0  0  0  0  4           0  0  0
   -6.5541    2.9265   -5.8520 C   0  0  0  0  0  4           0  0  0
   -8.5159    1.6437   -5.2463 C   0  0  0  0  0  4           0  0  0
    5.5822   -1.3671    2.3073 C   0  0  0  0  0  4           0  0  0
   -8.5763    4.1526   -4.9433 C   0  0  1  0  0  4           0  0  0
   -5.0172    0.4453   -6.0183 C   0  0  0  0  0  4           0  0  0
   -7.0455    4.1342   -5.0497 C   0  0  0  0  0  4           0  0  0
   -9.0712    2.8024   -4.4167 C   0  0  0  0  0  4           0  0  0
  1 11  2  0     0  0
  2 15  1  0     0  0
  2 33  1  0     0  0
  3 16  1  0     0  0
  3 35  1  0     0  0
  4 32  2  0     0  0
  5 34  1  0     0  0
  6 11  1  0     0  0
  7  8  1  0     0  0
  7 21  1  0     0  0
  8 18  2  0     0  0
  9 17  1  0     0  0
  9 19  2  0     0  0
 10 17  2  0     0  0
 10 20  1  0     0  0
 11 22  1  0     0  0
 12 18  1  0     0  0
 12 19  1  0     0  0
 13 23  1  0     0  0
 13 32  1  0     0  0
 14 36  1  0     0  0
 14 37  1  0     0  0
 14 38  1  0     0  0
 15 16  1  0     0  0
 15 25  2  0     0  0
 16 26  2  0     0  0
 18 27  1  0     0  0
 19 24  1  0     0  0
 20 24  2  0     0  0
 20 25  1  0     0  0
 21 27  2  0     0  0
 21 39  1  0     0  0
 22 28  1  0     0  0
 22 29  2  0     0  0
 23 28  2  0     0  0
 23 30  1  0     0  0
 24 26  1  0     0  0
 29 31  1  0     0  0
 30 31  2  0     0  0
 32 39  1  0     0  0
 33 41  1  0     0  0
 34 40  1  0     0  0
 36 41  1  0     0  0
 37 42  1  0     0  0
 38 43  1  0     0  0
 40 42  1  0     0  0
 40 43  1  0     0  0
M  CHG  2   6  -1  11   1
M  END
> <standard_type>
pIC50

> <# Confs.>
25

> <canonical_smiles>
O=C(CC1=CC(NC2=NC=NC3=C2C=C(OC)C(OCCCN4CCC(CO)CC4)=C3)=NN1)NC5=CC([N+]([O-])=O)=CC=C5

> <standard_relation>
=

> <Publication_ID>
nan

> <predicted_activity_value>
7.795880017344075

> <actual_activity_value>
7.4089353929735005

> <Compound>
29

> <standard_units>
nM

> hash
6972764257274872620

$$$$
29_
XXILIB    08252103423D 0   0.00000     0.00000

 43 47  0     1  0            999 V2000
    9.3660    4.9035   -4.1764 O   0  0  0  0  0  2           0  0  0
   -2.9823    0.2903   -4.7493 O   0  0  0  0  0  2           0  0  0
   -0.2536    0.2091   -4.8645 O   0  0  0  0  0  2           0  0  0
    5.9240    3.6884    2.3874 O   0  0  0  0  0  2           0  0  0
   -7.4559    7.9629   -3.0267 O   0  0  0  0  0  2           0  0  0
    8.8872    2.7710   -3.8696 O   0  5  0  0  0  1           0  0  0
    3.1007    1.4995    2.6096 N   0  0  0  0  0  3           0  0  0
    1.9217    1.1854    2.0532 N   0  0  0  0  0  3           0  0  0
   -0.6505    0.0000    1.1896 N   0  0  0  0  0  3           0  0  0
   -2.7555    0.0700    0.0433 N   0  0  0  0  0  3           0  0  0
    8.8993    3.9596   -3.5261 N   0  3  0  0  0  4           0  0  0
    1.4152   -0.0000    0.0000 N   0  0  0  0  0  3           0  0  0
    6.6640    2.4994    0.5293 N   0  0  0  0  0  3           0  0  0
   -5.8559    3.5010   -5.0715 N   0  0  1  0  0  3           0  0  0
   -2.2944    0.1932   -3.5735 C   0  0  0  0  0  4           0  0  0
   -0.9040    0.1447   -3.6647 C   0  0  0  0  0  4           0  0  0
   -1.9894    0.0286    1.1432 C   0  0  0  0  0  4           0  0  0
    2.2530    0.5351    0.9268 C   0  0  0  0  0  4           0  0  0
    0.0000    0.0000    0.0000 C   0  0  0  0  0  4           0  0  0
   -2.1184    0.0916   -1.1344 C   0  0  0  0  0  4           0  0  0
    4.1863    1.0763    1.8965 C   0  0  0  0  0  4           0  0  0
    8.3154    4.2735   -2.2512 C   0  0  0  0  0  4           0  0  0
    7.2072    3.5524   -0.2307 C   0  0  0  0  0  4           0  0  0
   -0.7118    0.0629   -1.2259 C   0  0  0  0  0  4           0  0  0
   -2.8799    0.1573   -2.3026 C   0  0  0  0  0  4           0  0  0
   -0.1198    0.1040   -2.5106 C   0  0  0  0  0  4           0  0  0
    3.6643    0.4511    0.7869 C   0  0  0  0  0  4           0  0  0
    7.7724    3.2450   -1.4742 C   0  0  0  0  0  4           0  0  0
    8.3040    5.5993   -1.8141 C   0  0  0  0  0  4           0  0  0
    7.1942    4.8808    0.2163 C   0  0  0  0  0  4           0  0  0
    7.7401    5.8962   -0.5745 C   0  0  0  0  0  4           0  0  0
    6.0696    2.6309    1.7754 C   0  0  0  0  0  4           0  0  0
   -4.2305    0.9805   -4.6765 C   0  0  0  0  0  4           0  0  0
   -6.1913    7.3134   -3.0447 C   0  0  0  0  0  4           0  0  0
   -0.0147   -1.0460   -5.4962 C   0  0  0  0  0  4           0  0  0
   -5.8205    2.4292   -6.0702 C   0  0  0  0  0  4           0  0  0
   -4.7664    4.4686   -5.2805 C   0  0  0  0  0  4           0  0  0
   -7.1630    4.1756   -5.1033 C   0  0  0  0  0  4           0  0  0
    5.5822    1.3146    2.3376 C   0  0  0  0  0  4           0  0  0
   -6.1353    6.2878   -4.1693 C   0  0  1  0  0  4           0  0  0
   -4.5044    1.6514   -6.0164 C   0  0  0  0  0  4           0  0  0
   -4.7806    5.5682   -4.2154 C   0  0  0  0  0  4           0  0  0
   -7.2597    5.2579   -4.0269 C   0  0  0  0  0  4           0  0  0
  1 11  2  0     0  0
  2 15  1  0     0  0
  2 33  1  0     0  0
  3 16  1  0     0  0
  3 35  1  0     0  0
  4 32  2  0     0  0
  5 34  1  0     0  0
  6 11  1  0     0  0
  7  8  1  0     0  0
  7 21  1  0     0  0
  8 18  2  0     0  0
  9 17  1  0     0  0
  9 19  2  0     0  0
 10 17  2  0     0  0
 10 20  1  0     0  0
 11 22  1  0     0  0
 12 18  1  0     0  0
 12 19  1  0     0  0
 13 23  1  0     0  0
 13 32  1  0     0  0
 14 36  1  0     0  0
 14 37  1  0     0  0
 14 38  1  0     0  0
 15 16  1  0     0  0
 15 25  2  0     0  0
 16 26  2  0     0  0
 18 27  1  0     0  0
 19 24  1  0     0  0
 20 24  2  0     0  0
 20 25  1  0     0  0
 21 27  2  0     0  0
 21 39  1  0     0  0
 22 28  1  0     0  0
 22 29  2  0     0  0
 23 28  2  0     0  0
 23 30  1  0     0  0
 24 26  1  0     0  0
 29 31  1  0     0  0
 30 31  2  0     0  0
 32 39  1  0     0  0
 33 41  1  0     0  0
 34 40  1  0     0  0
 36 41  1  0     0  0
 37 42  1  0     0  0
 38 43  1  0     0  0
 40 42  1  0     0  0
 40 43  1  0     0  0
M  CHG  2   6  -1  11   1
M  END
> <standard_type>
pIC50

> <# Confs.>
25

> <canonical_smiles>
O=C(CC1=CC(NC2=NC=NC3=C2C=C(OC)C(OCCCN4CCC(CO)CC4)=C3)=NN1)NC5=CC([N+]([O-])=O)=CC=C5

> <standard_relation>
=

> <Publication_ID>
nan

> <predicted_activity_value>
7.795880017344075

> <actual_activity_value>
7.4089353929735005

> <Compound>
29

> <standard_units>
nM

> hash
6972764257274872620

$$$$
29_
XXILIB    08252103423D 0   0.00000     0.00000

 43 47  0     1  0            999 V2000
   11.2742   -4.7445    3.0571 O   0  0  0  0  0  2           0  0  0
   -2.9823    0.2903   -4.7493 O   0  0  0  0  0  2           0  0  0
   -0.2536    0.2091   -4.8645 O   0  0  0  0  0  2           0  0  0
    5.4650   -0.1348    4.2454 O   0  0  0  0  0  2           0  0  0
   -8.6533    6.5456   -4.5931 O   0  0  0  0  0  2           0  0  0
   11.0658   -3.2383    1.4575 O   0  5  0  0  0  1           0  0  0
    3.1007    1.4995    2.6096 N   0  0  0  0  0  3           0  0  0
    1.9217    1.1854    2.0532 N   0  0  0  0  0  3           0  0  0
   -0.6505    0.0000    1.1896 N   0  0  0  0  0  3           0  0  0
   -2.7555    0.0700    0.0433 N   0  0  0  0  0  3           0  0  0
   10.7236   -3.7761    2.5180 N   0  3  0  0  0  4           0  0  0
    1.4152   -0.0000    0.0000 N   0  0  0  0  0  3           0  0  0
    7.1560   -0.4868    2.6864 N   0  0  0  0  0  3           0  0  0
   -7.0451    1.6625   -5.2793 N   0  0  1  0  0  3           0  0  0
   -2.2944    0.1932   -3.5735 C   0  0  0  0  0  4           0  0  0
   -0.9040    0.1447   -3.6647 C   0  0  0  0  0  4           0  0  0
   -1.9894    0.0286    1.1432 C   0  0  0  0  0  4           0  0  0
    2.2530    0.5351    0.9268 C   0  0  0  0  0  4           0  0  0
    0.0000    0.0000    0.0000 C   0  0  0  0  0  4           0  0  0
   -2.1184    0.0916   -1.1344 C   0  0  0  0  0  4           0  0  0
    4.1863    1.0763    1.8965 C   0  0  0  0  0  4           0  0  0
    9.5785   -3.2231    3.1870 C   0  0  0  0  0  4           0  0  0
    7.8000   -1.5921    3.2739 C   0  0  0  0  0  4           0  0  0
   -0.7118    0.0629   -1.2259 C   0  0  0  0  0  4           0  0  0
   -2.8799    0.1573   -2.3026 C   0  0  0  0  0  4           0  0  0
   -0.1198    0.1040   -2.5106 C   0  0  0  0  0  4           0  0  0
    3.6643    0.4511    0.7869 C   0  0  0  0  0  4           0  0  0
    8.9177   -2.1272    2.6224 C   0  0  0  0  0  4           0  0  0
    9.1484   -3.7929    4.3867 C   0  0  0  0  0  4           0  0  0
    7.3605   -2.1602    4.4775 C   0  0  0  0  0  4           0  0  0
    8.0343   -3.2544    5.0283 C   0  0  0  0  0  4           0  0  0
    6.0416    0.1601    3.1991 C   0  0  0  0  0  4           0  0  0
   -4.4044    0.3382   -4.6278 C   0  0  0  0  0  4           0  0  0
   -9.0670    5.2935   -4.0617 C   0  0  0  0  0  4           0  0  0
    0.0875    1.5217   -5.3029 C   0  0  0  0  0  4           0  0  0
   -6.5457    0.5051   -6.0267 C   0  0  0  0  0  4           0  0  0
   -6.5541    2.9265   -5.8520 C   0  0  0  0  0  4           0  0  0
   -8.5159    1.6437   -5.2463 C   0  0  0  0  0  4           0  0  0
    5.5822    1.3146    2.3376 C   0  0  0  0  0  4           0  0  0
   -8.5763    4.1526   -4.9433 C   0  0  1  0  0  4           0  0  0
   -5.0172    0.4453   -6.0183 C   0  0  0  0  0  4           0  0  0
   -7.0455    4.1342   -5.0497 C   0  0  0  0  0  4           0  0  0
   -9.0712    2.8024   -4.4167 C   0  0  0  0  0  4           0  0  0
  1 11  2  0     0  0
  2 15  1  0     0  0
  2 33  1  0     0  0
  3 16  1  0     0  0
  3 35  1  0     0  0
  4 32  2  0     0  0
  5 34  1  0     0  0
  6 11  1  0     0  0
  7  8  1  0     0  0
  7 21  1  0     0  0
  8 18  2  0     0  0
  9 17  1  0     0  0
  9 19  2  0     0  0
 10 17  2  0     0  0
 10 20  1  0     0  0
 11 22  1  0     0  0
 12 18  1  0     0  0
 12 19  1  0     0  0
 13 23  1  0     0  0
 13 32  1  0     0  0
 14 36  1  0     0  0
 14 37  1  0     0  0
 14 38  1  0     0  0
 15 16  1  0     0  0
 15 25  2  0     0  0
 16 26  2  0     0  0
 18 27  1  0     0  0
 19 24  1  0     0  0
 20 24  2  0     0  0
 20 25  1  0     0  0
 21 27  2  0     0  0
 21 39  1  0     0  0
 22 28  1  0     0  0
 22 29  2  0     0  0
 23 28  2  0     0  0
 23 30  1  0     0  0
 24 26  1  0     0  0
 29 31  1  0     0  0
 30 31  2  0     0  0
 32 39  1  0     0  0
 33 41  1  0     0  0
 34 40  1  0     0  0
 36 41  1  0     0  0
 37 42  1  0     0  0
 38 43  1  0     0  0
 40 42  1  0     0  0
 40 43  1  0     0  0
M  CHG  2   6  -1  11   1
M  END
> <standard_type>
pIC50

> <# Confs.>
25

> <canonical_smiles>
O=C(CC1=CC(NC2=NC=NC3=C2C=C(OC)C(OCCCN4CCC(CO)CC4)=C3)=NN1)NC5=CC([N+]([O-])=O)=CC=C5

> <standard_relation>
=

> <Publication_ID>
nan

> <predicted_activity_value>
7.795880017344075

> <actual_activity_value>
7.4089353929735005

> <Compound>
29

> <standard_units>
nM

> hash
6972764257274872620

$$$$
29_
XXILIB    08252103423D 0   0.00000     0.00000

 43 47  0     1  0            999 V2000
    9.3357   -6.1371    2.2244 O   0  0  0  0  0  2           0  0  0
   -2.9823    0.2903   -4.7493 O   0  0  0  0  0  2           0  0  0
   -0.2536    0.2091   -4.8645 O   0  0  0  0  0  2           0  0  0
    5.8840    0.1618    4.4194 O   0  0  0  0  0  2           0  0  0
   -5.4090    8.2183   -6.3531 O   0  0  0  0  0  2           0  0  0
    8.8871   -4.7989    0.5276 O   0  5  0  0  0  1           0  0  0
    3.1007    1.4995    2.6096 N   0  0  0  0  0  3           0  0  0
    1.9217    1.1854    2.0532 N   0  0  0  0  0  3           0  0  0
   -0.6505    0.0000    1.1896 N   0  0  0  0  0  3           0  0  0
   -2.7555    0.0700    0.0433 N   0  0  0  0  0  3           0  0  0
    8.8795   -5.0993    1.7280 N   0  3  0  0  0  4           0  0  0
    1.4152   -0.0000   -0.0000 N   0  0  0  0  0  3           0  0  0
    6.6487   -0.8508    2.4691 N   0  0  0  0  0  3           0  0  0
   -6.1044    3.1188   -5.7094 N   0  0  1  0  0  3           0  0  0
   -2.2944    0.1932   -3.5735 C   0  0  0  0  0  4           0  0  0
   -0.9040    0.1447   -3.6647 C   0  0  0  0  0  4           0  0  0
   -1.9894    0.0286    1.1432 C   0  0  0  0  0  4           0  0  0
    2.2530    0.5351    0.9268 C   0  0  0  0  0  4           0  0  0
    0.0000    0.0000    0.0000 C   0  0  0  0  0  4           0  0  0
   -2.1184    0.0916   -1.1344 C   0  0  0  0  0  4           0  0  0
    4.1863    1.0763    1.8965 C   0  0  0  0  0  4           0  0  0
    8.2850   -4.1527    2.6309 C   0  0  0  0  0  4           0  0  0
    7.1718   -2.0428    3.0049 C   0  0  0  0  0  4           0  0  0
   -0.7118    0.0629   -1.2259 C   0  0  0  0  0  4           0  0  0
   -2.8799    0.1573   -2.3026 C   0  0  0  0  0  4           0  0  0
   -0.1198    0.1040   -2.5106 C   0  0  0  0  0  4           0  0  0
    3.6643    0.4511    0.7869 C   0  0  0  0  0  4           0  0  0
    7.7539   -2.9621    2.1239 C   0  0  0  0  0  4           0  0  0
    8.2484   -4.4425    3.9960 C   0  0  0  0  0  4           0  0  0
    7.1290   -2.3276    4.3766 C   0  0  0  0  0  4           0  0  0
    7.6662   -3.5220    4.8659 C   0  0  0  0  0  4           0  0  0
    6.0416    0.1601    3.1991 C   0  0  0  0  0  4           0  0  0
   -4.2305    0.9805   -4.6765 C   0  0  0  0  0  4           0  0  0
   -6.2645    7.4426   -5.5238 C   0  0  0  0  0  4           0  0  0
   -0.0147   -1.0460   -5.4962 C   0  0  0  0  0  4           0  0  0
   -6.2176    1.7163   -6.1186 C   0  0  0  0  0  4           0  0  0
   -5.1781    3.8611   -6.5799 C   0  0  0  0  0  4           0  0  0
   -7.4331    3.7508   -5.7059 C   0  0  0  0  0  4           0  0  0
    5.5822    1.3146    2.3376 C   0  0  0  0  0  4           0  0  0
   -6.3911    6.0254   -6.0672 C   0  0  1  0  0  4           0  0  0
   -4.8666    1.0011   -6.0605 C   0  0  0  0  0  4           0  0  0
   -5.0311    5.3172   -6.1305 C   0  0  0  0  0  4           0  0  0
   -7.3619    5.1989   -5.2188 C   0  0  0  0  0  4           0  0  0
  1 11  2  0     0  0
  2 15  1  0     0  0
  2 33  1  0     0  0
  3 16  1  0     0  0
  3 35  1  0     0  0
  4 32  2  0     0  0
  5 34  1  0     0  0
  6 11  1  0     0  0
  7  8  1  0     0  0
  7 21  1  0     0  0
  8 18  2  0     0  0
  9 17  1  0     0  0
  9 19  2  0     0  0
 10 17  2  0     0  0
 10 20  1  0     0  0
 11 22  1  0     0  0
 12 18  1  0     0  0
 12 19  1  0     0  0
 13 23  1  0     0  0
 13 32  1  0     0  0
 14 36  1  0     0  0
 14 37  1  0     0  0
 14 38  1  0     0  0
 15 16  1  0     0  0
 15 25  2  0     0  0
 16 26  2  0     0  0
 18 27  1  0     0  0
 19 24  1  0     0  0
 20 24  2  0     0  0
 20 25  1  0     0  0
 21 27  2  0     0  0
 21 39  1  0     0  0
 22 28  1  0     0  0
 22 29  2  0     0  0
 23 28  2  0     0  0
 23 30  1  0     0  0
 24 26  1  0     0  0
 29 31  1  0     0  0
 30 31  2  0     0  0
 32 39  1  0     0  0
 33 41  1  0     0  0
 34 40  1  0     0  0
 36 41  1  0     0  0
 37 42  1  0     0  0
 38 43  1  0     0  0
 40 42  1  0     0  0
 40 43  1  0     0  0
M  CHG  2   6  -1  11   1
M  END
> <standard_type>
pIC50

> <# Confs.>
25

> <canonical_smiles>
O=C(CC1=CC(NC2=NC=NC3=C2C=C(OC)C(OCCCN4CCC(CO)CC4)=C3)=NN1)NC5=CC([N+]([O-])=O)=CC=C5

> <standard_relation>
=

> <Publication_ID>
nan

> <predicted_activity_value>
7.795880017344075

> <actual_activity_value>
7.4089353929735005

> <Compound>
29

> <standard_units>
nM

> hash
6972764257274872620

$$$$
29_
XXILIB    08252103423D 0   0.00000     0.00000

 43 47  0     1  0            999 V2000
    9.3357   -4.9950   -4.2027 O   0  0  0  0  0  2           0  0  0
   -2.9823    0.2903   -4.7493 O   0  0  0  0  0  2           0  0  0
   -0.2536    0.2091   -4.8645 O   0  0  0  0  0  2           0  0  0
    5.8840   -3.7464    2.3499 O   0  0  0  0  0  2           0  0  0
   -5.4090    8.2183   -6.3531 O   0  0  0  0  0  2           0  0  0
    8.8871   -2.8564   -3.8922 O   0  5  0  0  0  1           0  0  0
    3.1007   -1.5103    2.6034 N   0  0  0  0  0  3           0  0  0
    1.9217   -1.1854    2.0532 N   0  0  0  0  0  3           0  0  0
   -0.6505    0.0000    1.1896 N   0  0  0  0  0  3           0  0  0
   -2.7555    0.0700    0.0433 N   0  0  0  0  0  3           0  0  0
    8.8795   -4.0461   -3.5522 N   0  3  0  0  0  4           0  0  0
    1.4152   -0.0000   -0.0000 N   0  0  0  0  0  3           0  0  0
    6.6487   -2.5637    0.4977 N   0  0  0  0  0  3           0  0  0
   -6.1044    3.1188   -5.7094 N   0  0  1  0  0  3           0  0  0
   -2.2944    0.1932   -3.5735 C   0  0  0  0  0  4           0  0  0
   -0.9040    0.1447   -3.6647 C   0  0  0  0  0  4           0  0  0
   -1.9894    0.0286    1.1432 C   0  0  0  0  0  4           0  0  0
    2.2530   -0.5351    0.9268 C   0  0  0  0  0  4           0  0  0
    0.0000    0.0000    0.0000 C   0  0  0  0  0  4           0  0  0
   -2.1184    0.0916   -1.1344 C   0  0  0  0  0  4           0  0  0
    4.1863   -1.1043    1.8804 C   0  0  0  0  0  4           0  0  0
    8.2850   -4.3548   -2.2809 C   0  0  0  0  0  4           0  0  0
    7.1718   -3.6237   -0.2667 C   0  0  0  0  0  4           0  0  0
   -0.7118    0.0629   -1.2259 C   0  0  0  0  0  4           0  0  0
   -2.8799    0.1573   -2.3026 C   0  0  0  0  0  4           0  0  0
   -0.1198    0.1040   -2.5106 C   0  0  0  0  0  4           0  0  0
    3.6643   -0.4559    0.7841 C   0  0  0  0  0  4           0  0  0
    7.7539   -3.3204   -1.5033 C   0  0  0  0  0  4           0  0  0
    8.2484   -5.6819   -1.8493 C   0  0  0  0  0  4           0  0  0
    7.1290   -4.9540    0.1725 C   0  0  0  0  0  4           0  0  0
    7.6662   -5.9749   -0.6172 C   0  0  0  0  0  4           0  0  0
    6.0416   -2.6904    1.7381 C   0  0  0  0  0  4           0  0  0
   -4.2305    0.9805   -4.6765 C   0  0  0  0  0  4           0  0  0
   -6.2645    7.4426   -5.5238 C   0  0  0  0  0  4           0  0  0
   -0.0147   -1.0460   -5.4962 C   0  0  0  0  0  4           0  0  0
   -6.2176    1.7163   -6.1186 C   0  0  0  0  0  4           0  0  0
   -5.1781    3.8611   -6.5799 C   0  0  0  0  0  4           0  0  0
   -7.4331    3.7508   -5.7059 C   0  0  0  0  0  4           0  0  0
    5.5822   -1.3671    2.3073 C   0  0  0  0  0  4           0  0  0
   -6.3911    6.0254   -6.0672 C   0  0  1  0  0  4           0  0  0
   -4.8666    1.0011   -6.0605 C   0  0  0  0  0  4           0  0  0
   -5.0311    5.3172   -6.1305 C   0  0  0  0  0  4           0  0  0
   -7.3619    5.1989   -5.2188 C   0  0  0  0  0  4           0  0  0
  1 11  2  0     0  0
  2 15  1  0     0  0
  2 33  1  0     0  0
  3 16  1  0     0  0
  3 35  1  0     0  0
  4 32  2  0     0  0
  5 34  1  0     0  0
  6 11  1  0     0  0
  7  8  1  0     0  0
  7 21  1  0     0  0
  8 18  2  0     0  0
  9 17  1  0     0  0
  9 19  2  0     0  0
 10 17  2  0     0  0
 10 20  1  0     0  0
 11 22  1  0     0  0
 12 18  1  0     0  0
 12 19  1  0     0  0
 13 23  1  0     0  0
 13 32  1  0     0  0
 14 36  1  0     0  0
 14 37  1  0     0  0
 14 38  1  0     0  0
 15 16  1  0     0  0
 15 25  2  0     0  0
 16 26  2  0     0  0
 18 27  1  0     0  0
 19 24  1  0     0  0
 20 24  2  0     0  0
 20 25  1  0     0  0
 21 27  2  0     0  0
 21 39  1  0     0  0
 22 28  1  0     0  0
 22 29  2  0     0  0
 23 28  2  0     0  0
 23 30  1  0     0  0
 24 26  1  0     0  0
 29 31  1  0     0  0
 30 31  2  0     0  0
 32 39  1  0     0  0
 33 41  1  0     0  0
 34 40  1  0     0  0
 36 41  1  0     0  0
 37 42  1  0     0  0
 38 43  1  0     0  0
 40 42  1  0     0  0
 40 43  1  0     0  0
M  CHG  2   6  -1  11   1
M  END
> <standard_type>
pIC50

> <# Confs.>
25

> <canonical_smiles>
O=C(CC1=CC(NC2=NC=NC3=C2C=C(OC)C(OCCCN4CCC(CO)CC4)=C3)=NN1)NC5=CC([N+]([O-])=O)=CC=C5

> <standard_relation>
=

> <Publication_ID>
nan

> <predicted_activity_value>
7.795880017344075

> <actual_activity_value>
7.4089353929735005

> <Compound>
29

> <standard_units>
nM

> hash
6972764257274872620

$$$$
29_
XXILIB    08252103423D 0   0.00000     0.00000

 43 47  0     1  0            999 V2000
    9.3357   -4.9950   -4.2027 O   0  0  0  0  0  2           0  0  0
   -2.9823    0.2903   -4.7493 O   0  0  0  0  0  2           0  0  0
   -0.2536    0.2091   -4.8645 O   0  0  0  0  0  2           0  0  0
    5.8840   -3.7464    2.3499 O   0  0  0  0  0  2           0  0  0
  -10.6883   -4.4044   -4.7149 O   0  0  0  0  0  2           0  0  0
    8.8871   -2.8564   -3.8922 O   0  5  0  0  0  1           0  0  0
    3.1007   -1.5103    2.6034 N   0  0  0  0  0  3           0  0  0
    1.9217   -1.1854    2.0532 N   0  0  0  0  0  3           0  0  0
   -0.6505    0.0000    1.1896 N   0  0  0  0  0  3           0  0  0
   -2.7555    0.0700    0.0433 N   0  0  0  0  0  3           0  0  0
    8.8795   -4.0461   -3.5522 N   0  3  0  0  0  4           0  0  0
    1.4152   -0.0000   -0.0000 N   0  0  0  0  0  3           0  0  0
    6.6487   -2.5637    0.4977 N   0  0  0  0  0  3           0  0  0
   -7.1364   -0.6910   -5.4202 N   0  0  1  0  0  3           0  0  0
   -2.2944    0.1932   -3.5735 C   0  0  0  0  0  4           0  0  0
   -0.9040    0.1447   -3.6647 C   0  0  0  0  0  4           0  0  0
   -1.9894    0.0286    1.1432 C   0  0  0  0  0  4           0  0  0
    2.2530   -0.5351    0.9268 C   0  0  0  0  0  4           0  0  0
    0.0000    0.0000    0.0000 C   0  0  0  0  0  4           0  0  0
   -2.1184    0.0916   -1.1344 C   0  0  0  0  0  4           0  0  0
    4.1863   -1.1043    1.8804 C   0  0  0  0  0  4           0  0  0
    8.2850   -4.3548   -2.2809 C   0  0  0  0  0  4           0  0  0
    7.1718   -3.6237   -0.2667 C   0  0  0  0  0  4           0  0  0
   -0.7118    0.0629   -1.2259 C   0  0  0  0  0  4           0  0  0
   -2.8799    0.1573   -2.3026 C   0  0  0  0  0  4           0  0  0
   -0.1198    0.1040   -2.5106 C   0  0  0  0  0  4           0  0  0
    3.6643   -0.4559    0.7841 C   0  0  0  0  0  4           0  0  0
    7.7539   -3.3204   -1.5033 C   0  0  0  0  0  4           0  0  0
    8.2484   -5.6819   -1.8493 C   0  0  0  0  0  4           0  0  0
    7.1290   -4.9540    0.1725 C   0  0  0  0  0  4           0  0  0
    7.6662   -5.9749   -0.6172 C   0  0  0  0  0  4           0  0  0
    6.0416   -2.6904    1.7381 C   0  0  0  0  0  4           0  0  0
   -4.4044    0.3382   -4.6278 C   0  0  0  0  0  4           0  0  0
   -9.2668   -4.3921   -4.7000 C   0  0  0  0  0  4           0  0  0
   -0.0147   -1.0460   -5.4962 C   0  0  0  0  0  4           0  0  0
   -6.5457    0.5051   -6.0267 C   0  0  0  0  0  4           0  0  0
   -8.6072   -0.6299   -5.4301 C   0  0  0  0  0  4           0  0  0
   -6.6619   -1.8960   -6.1185 C   0  0  0  0  0  4           0  0  0
    5.5822   -1.3671    2.3073 C   0  0  0  0  0  4           0  0  0
   -8.7372   -3.1600   -5.4219 C   0  0  1  0  0  4           0  0  0
   -5.0172    0.4453   -6.0183 C   0  0  0  0  0  4           0  0  0
   -9.2244   -1.8621   -4.7635 C   0  0  0  0  0  4           0  0  0
   -7.2066   -3.1692   -5.4692 C   0  0  0  0  0  4           0  0  0
  1 11  2  0     0  0
  2 15  1  0     0  0
  2 33  1  0     0  0
  3 16  1  0     0  0
  3 35  1  0     0  0
  4 32  2  0     0  0
  5 34  1  0     0  0
  6 11  1  0     0  0
  7  8  1  0     0  0
  7 21  1  0     0  0
  8 18  2  0     0  0
  9 17  1  0     0  0
  9 19  2  0     0  0
 10 17  2  0     0  0
 10 20  1  0     0  0
 11 22  1  0     0  0
 12 18  1  0     0  0
 12 19  1  0     0  0
 13 23  1  0     0  0
 13 32  1  0     0  0
 14 36  1  0     0  0
 14 37  1  0     0  0
 14 38  1  0     0  0
 15 16  1  0     0  0
 15 25  2  0     0  0
 16 26  2  0     0  0
 18 27  1  0     0  0
 19 24  1  0     0  0
 20 24  2  0     0  0
 20 25  1  0     0  0
 21 27  2  0     0  0
 21 39  1  0     0  0
 22 28  1  0     0  0
 22 29  2  0     0  0
 23 28  2  0     0  0
 23 30  1  0     0  0
 24 26  1  0     0  0
 29 31  1  0     0  0
 30 31  2  0     0  0
 32 39  1  0     0  0
 33 41  1  0     0  0
 34 40  1  0     0  0
 36 41  1  0     0  0
 37 42  1  0     0  0
 38 43  1  0     0  0
 40 42  1  0     0  0
 40 43  1  0     0  0
M  CHG  2   6  -1  11   1
M  END
> <standard_type>
pIC50

> <# Confs.>
25

> <canonical_smiles>
O=C(CC1=CC(NC2=NC=NC3=C2C=C(OC)C(OCCCN4CCC(CO)CC4)=C3)=NN1)NC5=CC([N+]([O-])=O)=CC=C5

> <standard_relation>
=

> <Publication_ID>
nan

> <predicted_activity_value>
7.795880017344075

> <actual_activity_value>
7.4089353929735005

> <Compound>
29

> <standard_units>
nM

> hash
6972764257274872620

$$$$
22_
XXILIB    08252103423D 0   0.00000     0.00000

 38 41  0     1  0            999 V2000
  -10.6540    4.7970   -4.2746 F   0  0  0  0  0  1           0  0  0
  -10.1671    6.7888   -6.0166 F   0  0  0  0  0  1           0  0  0
    1.3663    0.0000   -0.0000 O   0  0  0  0  0  2           0  0  0
   -9.9543    3.5814   -2.4137 O   0  0  0  0  0  2           0  0  0
    5.8137    1.0630    2.7056 O   0  0  0  0  0  2           0  0  0
   -8.2411    1.3967   -0.1573 N   0  0  0  0  0  3           0  0  0
   -7.0496    1.1121    0.3886 N   0  0  0  0  0  3           0  0  0
   -4.7052   -0.0278    1.7957 N   0  0  0  0  0  3           0  0  0
   -2.4763   -0.0168    2.6806 N   0  0  0  0  0  3           0  0  0
   -5.1100    0.0092   -0.5554 N   0  0  0  0  0  3           0  0  0
   -8.9757    2.4717   -4.2063 N   0  0  0  0  0  3           0  0  0
    5.4912    1.1726   -0.1949 N   0  0  2  0  0  3           0  0  0
   -9.6086    4.6828   -5.1064 C   0  0  0  0  0  4           0  0  0
   -9.3616    5.7178   -6.0033 C   0  0  0  0  0  4           0  0  0
   -0.0000    0.0000    0.0000 C   0  0  0  0  0  4           0  0  0
   -3.8122   -0.0343    2.7951 C   0  0  0  0  0  4           0  0  0
   -6.3730    0.5042   -0.5983 C   0  0  0  0  0  4           0  0  0
   -4.2076    0.0151    0.5349 C   0  0  0  0  0  4           0  0  0
   -1.9804   -0.0024    1.4364 C   0  0  0  0  0  4           0  0  0
   -8.3681    1.0033   -1.4591 C   0  0  0  0  0  4           0  0  0
   -8.7823    3.5558   -5.0830 C   0  0  0  0  0  4           0  0  0
   -2.8094    0.0054    0.2974 C   0  0  0  0  0  4           0  0  0
   -8.2914    5.6542   -6.8880 C   0  0  0  0  0  4           0  0  0
   -0.5976    0.0000    1.2656 C   0  0  0  0  0  4           0  0  0
   -0.8108   -0.0044   -1.1287 C   0  0  0  0  0  4           0  0  0
   -7.1621    0.4199   -1.7761 C   0  0  0  0  0  4           0  0  0
   -7.7036    3.4914   -5.9751 C   0  0  0  0  0  4           0  0  0
   -2.1991   -0.0022   -0.9808 C   0  0  0  0  0  4           0  0  0
   -7.4598    4.5365   -6.8718 C   0  0  0  0  0  4           0  0  0
   -9.5354    2.5526   -2.9434 C   0  0  0  0  0  4           0  0  0
    1.9812    0.0000   -1.2887 C   0  0  0  0  0  4           0  0  0
    5.4593   -0.0893    1.9519 C   0  0  0  0  0  4           0  0  0
    6.0072    0.0039    0.5274 C   0  0  0  0  0  4           0  0  0
    4.0317    1.2092   -0.3450 C   0  0  0  0  0  4           0  0  0
    6.2445    1.5397   -1.3922 C   0  0  0  0  0  4           0  0  0
   -9.6072    1.2130   -2.2469 C   0  0  0  0  0  4           0  0  0
    3.4941    0.0000   -1.1110 C   0  0  0  0  0  4           0  0  0
    7.6956    1.8750   -1.0633 C   0  0  0  0  0  4           0  0  0
  1 13  1  0     0  0
  2 14  1  0     0  0
  3 15  1  0     0  0
  3 31  1  0     0  0
  4 30  2  0     0  0
  5 32  1  0     0  0
  6  7  1  0     0  0
  6 20  1  0     0  0
  7 17  2  0     0  0
  8 16  2  0     0  0
  8 18  1  0     0  0
  9 16  1  0     0  0
  9 19  2  0     0  0
 10 17  1  0     0  0
 10 18  1  0     0  0
 11 21  1  0     0  0
 11 30  1  0     0  0
 12 33  1  0     0  0
 12 34  1  0     0  0
 12 35  1  0     0  0
 13 14  1  0     0  0
 13 21  2  0     0  0
 14 23  2  0     0  0
 15 24  2  0     0  0
 15 25  1  0     0  0
 17 26  1  0     0  0
 18 22  2  0     0  0
 19 22  1  0     0  0
 19 24  1  0     0  0
 20 26  2  0     0  0
 20 36  1  0     0  0
 21 27  1  0     0  0
 22 28  1  0     0  0
 23 29  1  0     0  0
 25 28  2  0     0  0
 27 29  2  0     0  0
 30 36  1  0     0  0
 31 37  1  0     0  0
 32 33  1  0     0  0
 34 37  1  0     0  0
 35 38  1  0     0  0
M  END
> <standard_type>
pIC50

> <# Confs.>
25

> <canonical_smiles>
FC1=C(NC(CC2=CC(NC3=C(C=CC(OCCCN(CCO)CC)=C4)C4=NC=N3)=NN2)=O)C=CC=C1F

> <standard_relation>
=

> <Publication_ID>
nan

> <predicted_activity_value>
7.698970004336019

> <actual_activity_value>
8.1249387366083

> <Compound>
22

> <standard_units>
nM

> hash
400142330712513226

$$$$
22_
XXILIB    08252103423D 0   0.00000     0.00000

 38 41  0     1  0            999 V2000
   -8.4961    5.1650   -3.3435 F   0  0  0  0  0  1           0  0  0
   -8.1557    7.1399   -5.1387 F   0  0  0  0  0  1           0  0  0
    1.3663    0.0000   -0.0000 O   0  0  0  0  0  2           0  0  0
   -9.9543    3.5814   -2.4137 O   0  0  0  0  0  2           0  0  0
    5.8137    1.0630    2.7056 O   0  0  0  0  0  2           0  0  0
   -8.2411    1.3967   -0.1573 N   0  0  0  0  0  3           0  0  0
   -7.0496    1.1121    0.3886 N   0  0  0  0  0  3           0  0  0
   -4.7052   -0.0278    1.7957 N   0  0  0  0  0  3           0  0  0
   -2.4763   -0.0168    2.6806 N   0  0  0  0  0  3           0  0  0
   -5.1100    0.0092   -0.5554 N   0  0  0  0  0  3           0  0  0
   -8.9757    2.4717   -4.2063 N   0  0  0  0  0  3           0  0  0
    5.4912    1.1726   -0.1949 N   0  0  2  0  0  3           0  0  0
   -8.5504    4.8640   -4.6490 C   0  0  0  0  0  4           0  0  0
   -8.3714    5.8901   -5.5719 C   0  0  0  0  0  4           0  0  0
   -0.0000    0.0000    0.0000 C   0  0  0  0  0  4           0  0  0
   -3.8122   -0.0343    2.7951 C   0  0  0  0  0  4           0  0  0
   -6.3730    0.5042   -0.5983 C   0  0  0  0  0  4           0  0  0
   -4.2076    0.0151    0.5349 C   0  0  0  0  0  4           0  0  0
   -1.9804   -0.0024    1.4364 C   0  0  0  0  0  4           0  0  0
   -8.3681    1.0033   -1.4591 C   0  0  0  0  0  4           0  0  0
   -8.7823    3.5558   -5.0830 C   0  0  0  0  0  4           0  0  0
   -2.8094    0.0054    0.2974 C   0  0  0  0  0  4           0  0  0
   -8.4161    5.6363   -6.9377 C   0  0  0  0  0  4           0  0  0
   -0.5976    0.0000    1.2656 C   0  0  0  0  0  4           0  0  0
   -0.8108   -0.0044   -1.1287 C   0  0  0  0  0  4           0  0  0
   -7.1621    0.4199   -1.7761 C   0  0  0  0  0  4           0  0  0
   -8.8278    3.2999   -6.4600 C   0  0  0  0  0  4           0  0  0
   -2.1991   -0.0022   -0.9808 C   0  0  0  0  0  4           0  0  0
   -8.6444    4.3355   -7.3817 C   0  0  0  0  0  4           0  0  0
   -9.5354    2.5526   -2.9434 C   0  0  0  0  0  4           0  0  0
    1.9812    0.0000   -1.2887 C   0  0  0  0  0  4           0  0  0
    5.4593   -0.0893    1.9519 C   0  0  0  0  0  4           0  0  0
    6.0072    0.0039    0.5274 C   0  0  0  0  0  4           0  0  0
    4.0317    1.2092   -0.3450 C   0  0  0  0  0  4           0  0  0
    6.2445    1.5397   -1.3922 C   0  0  0  0  0  4           0  0  0
   -9.6072    1.2130   -2.2469 C   0  0  0  0  0  4           0  0  0
    3.4941    0.0000   -1.1110 C   0  0  0  0  0  4           0  0  0
    7.6956    1.8750   -1.0633 C   0  0  0  0  0  4           0  0  0
  1 13  1  0     0  0
  2 14  1  0     0  0
  3 15  1  0     0  0
  3 31  1  0     0  0
  4 30  2  0     0  0
  5 32  1  0     0  0
  6  7  1  0     0  0
  6 20  1  0     0  0
  7 17  2  0     0  0
  8 16  2  0     0  0
  8 18  1  0     0  0
  9 16  1  0     0  0
  9 19  2  0     0  0
 10 17  1  0     0  0
 10 18  1  0     0  0
 11 21  1  0     0  0
 11 30  1  0     0  0
 12 33  1  0     0  0
 12 34  1  0     0  0
 12 35  1  0     0  0
 13 14  1  0     0  0
 13 21  2  0     0  0
 14 23  2  0     0  0
 15 24  2  0     0  0
 15 25  1  0     0  0
 17 26  1  0     0  0
 18 22  2  0     0  0
 19 22  1  0     0  0
 19 24  1  0     0  0
 20 26  2  0     0  0
 20 36  1  0     0  0
 21 27  1  0     0  0
 22 28  1  0     0  0
 23 29  1  0     0  0
 25 28  2  0     0  0
 27 29  2  0     0  0
 30 36  1  0     0  0
 31 37  1  0     0  0
 32 33  1  0     0  0
 34 37  1  0     0  0
 35 38  1  0     0  0
M  END
> <standard_type>
pIC50

> <# Confs.>
25

> <canonical_smiles>
FC1=C(NC(CC2=CC(NC3=C(C=CC(OCCCN(CCO)CC)=C4)C4=NC=N3)=NN2)=O)C=CC=C1F

> <standard_relation>
=

> <Publication_ID>
nan

> <predicted_activity_value>
7.698970004336019

> <actual_activity_value>
8.1249387366083

> <Compound>
22

> <standard_units>
nM

> hash
400142330712513226

$$$$
22_
XXILIB    08252103423D 0   0.00000     0.00000

 38 41  0     1  0            999 V2000
  -13.0086   -1.3339   -2.2254 F   0  0  0  0  0  1           0  0  0
  -14.1931   -3.7397   -2.4436 F   0  0  0  0  0  1           0  0  0
    1.3663    0.0000   -0.0000 O   0  0  0  0  0  2           0  0  0
  -11.3513   -0.0444   -1.1815 O   0  0  0  0  0  2           0  0  0
    5.8137    1.0630    2.7056 O   0  0  0  0  0  2           0  0  0
   -8.2411    1.3967   -0.1573 N   0  0  0  0  0  3           0  0  0
   -7.0496    1.1121    0.3886 N   0  0  0  0  0  3           0  0  0
   -4.7052   -0.0278    1.7957 N   0  0  0  0  0  3           0  0  0
   -2.4763   -0.0168    2.6806 N   0  0  0  0  0  3           0  0  0
   -5.1100    0.0092   -0.5554 N   0  0  0  0  0  3           0  0  0
  -10.2768   -0.9718   -3.0222 N   0  0  0  0  0  3           0  0  0
    5.4912    1.1726   -0.1949 N   0  0  2  0  0  3           0  0  0
  -12.2979   -2.3585   -2.7184 C   0  0  0  0  0  4           0  0  0
  -12.9176   -3.5994   -2.8302 C   0  0  0  0  0  4           0  0  0
   -0.0000    0.0000    0.0000 C   0  0  0  0  0  4           0  0  0
   -3.8122   -0.0343    2.7951 C   0  0  0  0  0  4           0  0  0
   -6.3730    0.5042   -0.5983 C   0  0  0  0  0  4           0  0  0
   -4.2076    0.0151    0.5349 C   0  0  0  0  0  4           0  0  0
   -1.9804   -0.0024    1.4364 C   0  0  0  0  0  4           0  0  0
   -8.3681    1.0033   -1.4591 C   0  0  0  0  0  4           0  0  0
  -10.9665   -2.1956   -3.1112 C   0  0  0  0  0  4           0  0  0
   -2.8094    0.0054    0.2974 C   0  0  0  0  0  4           0  0  0
  -12.2301   -4.6967   -3.3355 C   0  0  0  0  0  4           0  0  0
   -0.5976    0.0000    1.2656 C   0  0  0  0  0  4           0  0  0
   -0.8108   -0.0044   -1.1287 C   0  0  0  0  0  4           0  0  0
   -7.1621    0.4199   -1.7761 C   0  0  0  0  0  4           0  0  0
  -10.2731   -3.3018   -3.6202 C   0  0  0  0  0  4           0  0  0
   -2.1991   -0.0022   -0.9808 C   0  0  0  0  0  4           0  0  0
  -10.9032   -4.5453   -3.7324 C   0  0  0  0  0  4           0  0  0
  -10.5133    0.0145   -2.0809 C   0  0  0  0  0  4           0  0  0
    1.9812    0.0000   -1.2887 C   0  0  0  0  0  4           0  0  0
    5.4593   -0.0893    1.9519 C   0  0  0  0  0  4           0  0  0
    6.0072    0.0039    0.5274 C   0  0  0  0  0  4           0  0  0
    4.0317    1.2092   -0.3450 C   0  0  0  0  0  4           0  0  0
    6.2445    1.5397   -1.3922 C   0  0  0  0  0  4           0  0  0
   -9.6072    1.2130   -2.2469 C   0  0  0  0  0  4           0  0  0
    3.4941    0.0000   -1.1110 C   0  0  0  0  0  4           0  0  0
    7.6956    1.8750   -1.0633 C   0  0  0  0  0  4           0  0  0
  1 13  1  0     0  0
  2 14  1  0     0  0
  3 15  1  0     0  0
  3 31  1  0     0  0
  4 30  2  0     0  0
  5 32  1  0     0  0
  6  7  1  0     0  0
  6 20  1  0     0  0
  7 17  2  0     0  0
  8 16  2  0     0  0
  8 18  1  0     0  0
  9 16  1  0     0  0
  9 19  2  0     0  0
 10 17  1  0     0  0
 10 18  1  0     0  0
 11 21  1  0     0  0
 11 30  1  0     0  0
 12 33  1  0     0  0
 12 34  1  0     0  0
 12 35  1  0     0  0
 13 14  1  0     0  0
 13 21  2  0     0  0
 14 23  2  0     0  0
 15 24  2  0     0  0
 15 25  1  0     0  0
 17 26  1  0     0  0
 18 22  2  0     0  0
 19 22  1  0     0  0
 19 24  1  0     0  0
 20 26  2  0     0  0
 20 36  1  0     0  0
 21 27  1  0     0  0
 22 28  1  0     0  0
 23 29  1  0     0  0
 25 28  2  0     0  0
 27 29  2  0     0  0
 30 36  1  0     0  0
 31 37  1  0     0  0
 32 33  1  0     0  0
 34 37  1  0     0  0
 35 38  1  0     0  0
M  END
> <standard_type>
pIC50

> <# Confs.>
25

> <canonical_smiles>
FC1=C(NC(CC2=CC(NC3=C(C=CC(OCCCN(CCO)CC)=C4)C4=NC=N3)=NN2)=O)C=CC=C1F

> <standard_relation>
=

> <Publication_ID>
nan

> <predicted_activity_value>
7.698970004336019

> <actual_activity_value>
8.1249387366083

> <Compound>
22

> <standard_units>
nM

> hash
400142330712513226

$$$$
22_
XXILIB    08252103423D 0   0.00000     0.00000

 38 41  0     1  0            999 V2000
  -10.1866   -5.0232   -4.5408 F   0  0  0  0  0  1           0  0  0
   -9.4722   -6.8979   -6.3335 F   0  0  0  0  0  1           0  0  0
    1.3663    0.0000   -0.0000 O   0  0  0  0  0  2           0  0  0
   -9.6196   -3.8453   -2.5940 O   0  0  0  0  0  2           0  0  0
    5.8137    1.0630    2.7056 O   0  0  0  0  0  2           0  0  0
   -8.1365   -1.6094   -0.2274 N   0  0  0  0  0  3           0  0  0
   -6.9731   -1.2557    0.3382 N   0  0  0  0  0  3           0  0  0
   -4.7052   -0.0278    1.7957 N   0  0  0  0  0  3           0  0  0
   -2.4763   -0.0168    2.6806 N   0  0  0  0  0  3           0  0  0
   -5.1100    0.0092   -0.5554 N   0  0  0  0  0  3           0  0  0
   -8.7051   -2.5773   -4.3141 N   0  0  0  0  0  3           0  0  0
    5.4912    1.1726   -0.1949 N   0  0  2  0  0  3           0  0  0
   -9.1274   -4.7890   -5.3290 C   0  0  0  0  0  4           0  0  0
   -8.7649   -5.7622   -6.2553 C   0  0  0  0  0  4           0  0  0
    0.0000   -0.0000    0.0000 C   0  0  0  0  0  4           0  0  0
   -3.8122   -0.0343    2.7951 C   0  0  0  0  0  4           0  0  0
   -6.3385   -0.5640   -0.6210 C   0  0  0  0  0  4           0  0  0
   -4.2076    0.0151    0.5349 C   0  0  0  0  0  4           0  0  0
   -1.9804   -0.0024    1.4364 C   0  0  0  0  0  4           0  0  0
   -8.2884   -1.1743   -1.5132 C   0  0  0  0  0  4           0  0  0
   -8.3975   -3.6013   -5.2297 C   0  0  0  0  0  4           0  0  0
   -2.8094    0.0054    0.2974 C   0  0  0  0  0  4           0  0  0
   -7.6767   -5.5731   -7.0991 C   0  0  0  0  0  4           0  0  0
   -0.5976    0.0000    1.2656 C   0  0  0  0  0  4           0  0  0
   -0.8108   -0.0044   -1.1287 C   0  0  0  0  0  4           0  0  0
   -7.1308   -0.4853   -1.7971 C   0  0  0  0  0  4           0  0  0
   -7.3002   -3.4106   -6.0801 C   0  0  0  0  0  4           0  0  0
   -2.1991   -0.0022   -0.9808 C   0  0  0  0  0  4           0  0  0
   -6.9433   -4.3918   -7.0104 C   0  0  0  0  0  4           0  0  0
   -9.2936   -2.7605   -3.0752 C   0  0  0  0  0  4           0  0  0
    1.9812    0.0000   -1.2887 C   0  0  0  0  0  4           0  0  0
    5.4593   -0.0893    1.9519 C   0  0  0  0  0  4           0  0  0
    6.0072    0.0039    0.5274 C   0  0  0  0  0  4           0  0  0
    4.0317    1.2092   -0.3450 C   0  0  0  0  0  4           0  0  0
    6.2445    1.5397   -1.3922 C   0  0  0  0  0  4           0  0  0
   -9.4957   -1.4641   -2.3246 C   0  0  0  0  0  4           0  0  0
    3.4941    0.0000   -1.1110 C   0  0  0  0  0  4           0  0  0
    7.6956    1.8750   -1.0633 C   0  0  0  0  0  4           0  0  0
  1 13  1  0     0  0
  2 14  1  0     0  0
  3 15  1  0     0  0
  3 31  1  0     0  0
  4 30  2  0     0  0
  5 32  1  0     0  0
  6  7  1  0     0  0
  6 20  1  0     0  0
  7 17  2  0     0  0
  8 16  2  0     0  0
  8 18  1  0     0  0
  9 16  1  0     0  0
  9 19  2  0     0  0
 10 17  1  0     0  0
 10 18  1  0     0  0
 11 21  1  0     0  0
 11 30  1  0     0  0
 12 33  1  0     0  0
 12 34  1  0     0  0
 12 35  1  0     0  0
 13 14  1  0     0  0
 13 21  2  0     0  0
 14 23  2  0     0  0
 15 24  2  0     0  0
 15 25  1  0     0  0
 17 26  1  0     0  0
 18 22  2  0     0  0
 19 22  1  0     0  0
 19 24  1  0     0  0
 20 26  2  0     0  0
 20 36  1  0     0  0
 21 27  1  0     0  0
 22 28  1  0     0  0
 23 29  1  0     0  0
 25 28  2  0     0  0
 27 29  2  0     0  0
 30 36  1  0     0  0
 31 37  1  0     0  0
 32 33  1  0     0  0
 34 37  1  0     0  0
 35 38  1  0     0  0
M  END
> <standard_type>
pIC50

> <# Confs.>
25

> <canonical_smiles>
FC1=C(NC(CC2=CC(NC3=C(C=CC(OCCCN(CCO)CC)=C4)C4=NC=N3)=NN2)=O)C=CC=C1F

> <standard_relation>
=

> <Publication_ID>
nan

> <predicted_activity_value>
7.698970004336019

> <actual_activity_value>
8.1249387366083

> <Compound>
22

> <standard_units>
nM

> hash
400142330712513226

$$$$
22_
XXILIB    08252103423D 0   0.00000     0.00000

 38 41  0     1  0            999 V2000
  -13.1236    0.7445   -2.2087 F   0  0  0  0  0  1           0  0  0
  -14.5415    3.0249   -2.3758 F   0  0  0  0  0  1           0  0  0
    1.3663    0.0000   -0.0000 O   0  0  0  0  0  2           0  0  0
  -11.3584   -0.4201   -1.2299 O   0  0  0  0  0  2           0  0  0
    5.8137    1.0630    2.7056 O   0  0  0  0  0  2           0  0  0
   -8.1365   -1.6094   -0.2274 N   0  0  0  0  0  3           0  0  0
   -6.9731   -1.2557    0.3382 N   0  0  0  0  0  3           0  0  0
   -4.7052   -0.0278    1.7957 N   0  0  0  0  0  3           0  0  0
   -2.4763   -0.0168    2.6806 N   0  0  0  0  0  3           0  0  0
   -5.1100    0.0092   -0.5554 N   0  0  0  0  0  3           0  0  0
  -10.3781    0.6662   -3.0359 N   0  0  0  0  0  3           0  0  0
    5.4912    1.1726   -0.1949 N   0  0  2  0  0  3           0  0  0
  -12.5197    1.8442   -2.6817 C   0  0  0  0  0  4           0  0  0
  -13.2586    3.0206   -2.7634 C   0  0  0  0  0  4           0  0  0
    0.0000   -0.0000    0.0000 C   0  0  0  0  0  4           0  0  0
   -3.8122   -0.0343    2.7951 C   0  0  0  0  0  4           0  0  0
   -6.3385   -0.5640   -0.6210 C   0  0  0  0  0  4           0  0  0
   -4.2076    0.0151    0.5349 C   0  0  0  0  0  4           0  0  0
   -1.9804   -0.0024    1.4364 C   0  0  0  0  0  4           0  0  0
   -8.2884   -1.1743   -1.5132 C   0  0  0  0  0  4           0  0  0
  -11.1824    1.8201   -3.0872 C   0  0  0  0  0  4           0  0  0
   -2.8094    0.0054    0.2974 C   0  0  0  0  0  4           0  0  0
  -12.6842    4.1913   -3.2446 C   0  0  0  0  0  4           0  0  0
   -0.5976    0.0000    1.2656 C   0  0  0  0  0  4           0  0  0
   -0.8108   -0.0044   -1.1287 C   0  0  0  0  0  4           0  0  0
   -7.1308   -0.4853   -1.7971 C   0  0  0  0  0  4           0  0  0
  -10.6033    3.0002   -3.5727 C   0  0  0  0  0  4           0  0  0
   -2.1991   -0.0022   -0.9808 C   0  0  0  0  0  4           0  0  0
  -11.3511    4.1795   -3.6494 C   0  0  0  0  0  4           0  0  0
  -10.5108   -0.3629   -2.1203 C   0  0  0  0  0  4           0  0  0
    1.9812    0.0000   -1.2887 C   0  0  0  0  0  4           0  0  0
    5.4593   -0.0893    1.9519 C   0  0  0  0  0  4           0  0  0
    6.0072    0.0039    0.5274 C   0  0  0  0  0  4           0  0  0
    4.0317    1.2092   -0.3450 C   0  0  0  0  0  4           0  0  0
    6.2445    1.5397   -1.3922 C   0  0  0  0  0  4           0  0  0
   -9.4957   -1.4641   -2.3246 C   0  0  0  0  0  4           0  0  0
    3.4941    0.0000   -1.1110 C   0  0  0  0  0  4           0  0  0
    7.6956    1.8750   -1.0633 C   0  0  0  0  0  4           0  0  0
  1 13  1  0     0  0
  2 14  1  0     0  0
  3 15  1  0     0  0
  3 31  1  0     0  0
  4 30  2  0     0  0
  5 32  1  0     0  0
  6  7  1  0     0  0
  6 20  1  0     0  0
  7 17  2  0     0  0
  8 16  2  0     0  0
  8 18  1  0     0  0
  9 16  1  0     0  0
  9 19  2  0     0  0
 10 17  1  0     0  0
 10 18  1  0     0  0
 11 21  1  0     0  0
 11 30  1  0     0  0
 12 33  1  0     0  0
 12 34  1  0     0  0
 12 35  1  0     0  0
 13 14  1  0     0  0
 13 21  2  0     0  0
 14 23  2  0     0  0
 15 24  2  0     0  0
 15 25  1  0     0  0
 17 26  1  0     0  0
 18 22  2  0     0  0
 19 22  1  0     0  0
 19 24  1  0     0  0
 20 26  2  0     0  0
 20 36  1  0     0  0
 21 27  1  0     0  0
 22 28  1  0     0  0
 23 29  1  0     0  0
 25 28  2  0     0  0
 27 29  2  0     0  0
 30 36  1  0     0  0
 31 37  1  0     0  0
 32 33  1  0     0  0
 34 37  1  0     0  0
 35 38  1  0     0  0
M  END
> <standard_type>
pIC50

> <# Confs.>
25

> <canonical_smiles>
FC1=C(NC(CC2=CC(NC3=C(C=CC(OCCCN(CCO)CC)=C4)C4=NC=N3)=NN2)=O)C=CC=C1F

> <standard_relation>
=

> <Publication_ID>
nan

> <predicted_activity_value>
7.698970004336019

> <actual_activity_value>
8.1249387366083

> <Compound>
22

> <standard_units>
nM

> hash
400142330712513226

$$$$
22_
XXILIB    08252103423D 0   0.00000     0.00000

 38 41  0     1  0            999 V2000
  -10.6540    4.7970   -4.2746 F   0  0  0  0  0  1           0  0  0
  -10.1671    6.7888   -6.0166 F   0  0  0  0  0  1           0  0  0
    1.3663    0.0000   -0.0000 O   0  0  0  0  0  2           0  0  0
   -9.9543    3.5814   -2.4137 O   0  0  0  0  0  2           0  0  0
    6.5368    2.5170   -3.4528 O   0  0  0  0  0  2           0  0  0
   -8.2411    1.3967   -0.1573 N   0  0  0  0  0  3           0  0  0
   -7.0496    1.1121    0.3886 N   0  0  0  0  0  3           0  0  0
   -4.7052   -0.0278    1.7957 N   0  0  0  0  0  3           0  0  0
   -2.4763   -0.0168    2.6806 N   0  0  0  0  0  3           0  0  0
   -5.1100    0.0092   -0.5554 N   0  0  0  0  0  3           0  0  0
   -8.9757    2.4717   -4.2063 N   0  0  0  0  0  3           0  0  0
    5.7280    0.0000   -2.2120 N   0  0  2  0  0  3           0  0  0
   -9.6086    4.6828   -5.1064 C   0  0  0  0  0  4           0  0  0
   -9.3616    5.7178   -6.0033 C   0  0  0  0  0  4           0  0  0
   -0.0000    0.0000    0.0000 C   0  0  0  0  0  4           0  0  0
   -3.8122   -0.0343    2.7951 C   0  0  0  0  0  4           0  0  0
   -6.3730    0.5042   -0.5983 C   0  0  0  0  0  4           0  0  0
   -4.2076    0.0151    0.5349 C   0  0  0  0  0  4           0  0  0
   -1.9804   -0.0024    1.4364 C   0  0  0  0  0  4           0  0  0
   -8.3681    1.0033   -1.4591 C   0  0  0  0  0  4           0  0  0
   -8.7823    3.5558   -5.0830 C   0  0  0  0  0  4           0  0  0
   -2.8094    0.0054    0.2974 C   0  0  0  0  0  4           0  0  0
   -8.2914    5.6542   -6.8880 C   0  0  0  0  0  4           0  0  0
   -0.5976    0.0000    1.2656 C   0  0  0  0  0  4           0  0  0
   -0.8108   -0.0044   -1.1287 C   0  0  0  0  0  4           0  0  0
   -7.1621    0.4199   -1.7761 C   0  0  0  0  0  4           0  0  0
   -7.7036    3.4914   -5.9751 C   0  0  0  0  0  4           0  0  0
   -2.1991   -0.0022   -0.9808 C   0  0  0  0  0  4           0  0  0
   -7.4598    4.5365   -6.8718 C   0  0  0  0  0  4           0  0  0
   -9.5354    2.5526   -2.9434 C   0  0  0  0  0  4           0  0  0
    1.9812    0.0000   -1.2887 C   0  0  0  0  0  4           0  0  0
    5.9423    2.4807   -2.1618 C   0  0  0  0  0  4           0  0  0
    6.2410    1.1536   -1.4636 C   0  0  0  0  0  4           0  0  0
    4.2759    0.0000   -2.4251 C   0  0  0  0  0  4           0  0  0
    6.2950   -1.2894   -1.8227 C   0  0  0  0  0  4           0  0  0
   -9.6072    1.2130   -2.2469 C   0  0  0  0  0  4           0  0  0
    3.4941    0.0000   -1.1110 C   0  0  0  0  0  4           0  0  0
    7.8075   -1.3207   -2.0168 C   0  0  0  0  0  4           0  0  0
  1 13  1  0     0  0
  2 14  1  0     0  0
  3 15  1  0     0  0
  3 31  1  0     0  0
  4 30  2  0     0  0
  5 32  1  0     0  0
  6  7  1  0     0  0
  6 20  1  0     0  0
  7 17  2  0     0  0
  8 16  2  0     0  0
  8 18  1  0     0  0
  9 16  1  0     0  0
  9 19  2  0     0  0
 10 17  1  0     0  0
 10 18  1  0     0  0
 11 21  1  0     0  0
 11 30  1  0     0  0
 12 33  1  0     0  0
 12 34  1  0     0  0
 12 35  1  0     0  0
 13 14  1  0     0  0
 13 21  2  0     0  0
 14 23  2  0     0  0
 15 24  2  0     0  0
 15 25  1  0     0  0
 17 26  1  0     0  0
 18 22  2  0     0  0
 19 22  1  0     0  0
 19 24  1  0     0  0
 20 26  2  0     0  0
 20 36  1  0     0  0
 21 27  1  0     0  0
 22 28  1  0     0  0
 23 29  1  0     0  0
 25 28  2  0     0  0
 27 29  2  0     0  0
 30 36  1  0     0  0
 31 37  1  0     0  0
 32 33  1  0     0  0
 34 37  1  0     0  0
 35 38  1  0     0  0
M  END
> <standard_type>
pIC50

> <# Confs.>
25

> <canonical_smiles>
FC1=C(NC(CC2=CC(NC3=C(C=CC(OCCCN(CCO)CC)=C4)C4=NC=N3)=NN2)=O)C=CC=C1F

> <standard_relation>
=

> <Publication_ID>
nan

> <predicted_activity_value>
7.698970004336019

> <actual_activity_value>
8.1249387366083

> <Compound>
22

> <standard_units>
nM

> hash
400142330712513226

$$$$
22_
XXILIB    08252103423D 0   0.00000     0.00000

 38 41  0     1  0            999 V2000
  -10.1866   -5.0232   -4.5408 F   0  0  0  0  0  1           0  0  0
   -9.4722   -6.8979   -6.3335 F   0  0  0  0  0  1           0  0  0
    1.3663    0.0000   -0.0000 O   0  0  0  0  0  2           0  0  0
   -9.6196   -3.8453   -2.5940 O   0  0  0  0  0  2           0  0  0
    6.5368    2.5170   -3.4528 O   0  0  0  0  0  2           0  0  0
   -8.1365   -1.6094   -0.2274 N   0  0  0  0  0  3           0  0  0
   -6.9731   -1.2557    0.3382 N   0  0  0  0  0  3           0  0  0
   -4.7052   -0.0278    1.7957 N   0  0  0  0  0  3           0  0  0
   -2.4763   -0.0168    2.6806 N   0  0  0  0  0  3           0  0  0
   -5.1100    0.0092   -0.5554 N   0  0  0  0  0  3           0  0  0
   -8.7051   -2.5773   -4.3141 N   0  0  0  0  0  3           0  0  0
    5.7280    0.0000   -2.2120 N   0  0  2  0  0  3           0  0  0
   -9.1274   -4.7890   -5.3290 C   0  0  0  0  0  4           0  0  0
   -8.7649   -5.7622   -6.2553 C   0  0  0  0  0  4           0  0  0
    0.0000   -0.0000    0.0000 C   0  0  0  0  0  4           0  0  0
   -3.8122   -0.0343    2.7951 C   0  0  0  0  0  4           0  0  0
   -6.3385   -0.5640   -0.6210 C   0  0  0  0  0  4           0  0  0
   -4.2076    0.0151    0.5349 C   0  0  0  0  0  4           0  0  0
   -1.9804   -0.0024    1.4364 C   0  0  0  0  0  4           0  0  0
   -8.2884   -1.1743   -1.5132 C   0  0  0  0  0  4           0  0  0
   -8.3975   -3.6013   -5.2297 C   0  0  0  0  0  4           0  0  0
   -2.8094    0.0054    0.2974 C   0  0  0  0  0  4           0  0  0
   -7.6767   -5.5731   -7.0991 C   0  0  0  0  0  4           0  0  0
   -0.5976    0.0000    1.2656 C   0  0  0  0  0  4           0  0  0
   -0.8108   -0.0044   -1.1287 C   0  0  0  0  0  4           0  0  0
   -7.1308   -0.4853   -1.7971 C   0  0  0  0  0  4           0  0  0
   -7.3002   -3.4106   -6.0801 C   0  0  0  0  0  4           0  0  0
   -2.1991   -0.0022   -0.9808 C   0  0  0  0  0  4           0  0  0
   -6.9433   -4.3918   -7.0104 C   0  0  0  0  0  4           0  0  0
   -9.2936   -2.7605   -3.0752 C   0  0  0  0  0  4           0  0  0
    1.9812    0.0000   -1.2887 C   0  0  0  0  0  4           0  0  0
    5.9423    2.4807   -2.1618 C   0  0  0  0  0  4           0  0  0
    6.2410    1.1536   -1.4636 C   0  0  0  0  0  4           0  0  0
    4.2759    0.0000   -2.4251 C   0  0  0  0  0  4           0  0  0
    6.2950   -1.2894   -1.8227 C   0  0  0  0  0  4           0  0  0
   -9.4957   -1.4641   -2.3246 C   0  0  0  0  0  4           0  0  0
    3.4941    0.0000   -1.1110 C   0  0  0  0  0  4           0  0  0
    7.8075   -1.3207   -2.0168 C   0  0  0  0  0  4           0  0  0
  1 13  1  0     0  0
  2 14  1  0     0  0
  3 15  1  0     0  0
  3 31  1  0     0  0
  4 30  2  0     0  0
  5 32  1  0     0  0
  6  7  1  0     0  0
  6 20  1  0     0  0
  7 17  2  0     0  0
  8 16  2  0     0  0
  8 18  1  0     0  0
  9 16  1  0     0  0
  9 19  2  0     0  0
 10 17  1  0     0  0
 10 18  1  0     0  0
 11 21  1  0     0  0
 11 30  1  0     0  0
 12 33  1  0     0  0
 12 34  1  0     0  0
 12 35  1  0     0  0
 13 14  1  0     0  0
 13 21  2  0     0  0
 14 23  2  0     0  0
 15 24  2  0     0  0
 15 25  1  0     0  0
 17 26  1  0     0  0
 18 22  2  0     0  0
 19 22  1  0     0  0
 19 24  1  0     0  0
 20 26  2  0     0  0
 20 36  1  0     0  0
 21 27  1  0     0  0
 22 28  1  0     0  0
 23 29  1  0     0  0
 25 28  2  0     0  0
 27 29  2  0     0  0
 30 36  1  0     0  0
 31 37  1  0     0  0
 32 33  1  0     0  0
 34 37  1  0     0  0
 35 38  1  0     0  0
M  END
> <standard_type>
pIC50

> <# Confs.>
25

> <canonical_smiles>
FC1=C(NC(CC2=CC(NC3=C(C=CC(OCCCN(CCO)CC)=C4)C4=NC=N3)=NN2)=O)C=CC=C1F

> <standard_relation>
=

> <Publication_ID>
nan

> <predicted_activity_value>
7.698970004336019

> <actual_activity_value>
8.1249387366083

> <Compound>
22

> <standard_units>
nM

> hash
400142330712513226

$$$$
22_
XXILIB    08252103423D 0   0.00000     0.00000

 38 41  0     1  0            999 V2000
   -8.4961    5.1650   -3.3435 F   0  0  0  0  0  1           0  0  0
   -8.1557    7.1399   -5.1387 F   0  0  0  0  0  1           0  0  0
    1.3663    0.0000   -0.0000 O   0  0  0  0  0  2           0  0  0
   -9.9543    3.5814   -2.4137 O   0  0  0  0  0  2           0  0  0
    6.5368    2.5170   -3.4528 O   0  0  0  0  0  2           0  0  0
   -8.2411    1.3967   -0.1573 N   0  0  0  0  0  3           0  0  0
   -7.0496    1.1121    0.3886 N   0  0  0  0  0  3           0  0  0
   -4.7052   -0.0278    1.7957 N   0  0  0  0  0  3           0  0  0
   -2.4763   -0.0168    2.6806 N   0  0  0  0  0  3           0  0  0
   -5.1100    0.0092   -0.5554 N   0  0  0  0  0  3           0  0  0
   -8.9757    2.4717   -4.2063 N   0  0  0  0  0  3           0  0  0
    5.7280    0.0000   -2.2120 N   0  0  2  0  0  3           0  0  0
   -8.5504    4.8640   -4.6490 C   0  0  0  0  0  4           0  0  0
   -8.3714    5.8901   -5.5719 C   0  0  0  0  0  4           0  0  0
   -0.0000    0.0000    0.0000 C   0  0  0  0  0  4           0  0  0
   -3.8122   -0.0343    2.7951 C   0  0  0  0  0  4           0  0  0
   -6.3730    0.5042   -0.5983 C   0  0  0  0  0  4           0  0  0
   -4.2076    0.0151    0.5349 C   0  0  0  0  0  4           0  0  0
   -1.9804   -0.0024    1.4364 C   0  0  0  0  0  4           0  0  0
   -8.3681    1.0033   -1.4591 C   0  0  0  0  0  4           0  0  0
   -8.7823    3.5558   -5.0830 C   0  0  0  0  0  4           0  0  0
   -2.8094    0.0054    0.2974 C   0  0  0  0  0  4           0  0  0
   -8.4161    5.6363   -6.9377 C   0  0  0  0  0  4           0  0  0
   -0.5976    0.0000    1.2656 C   0  0  0  0  0  4           0  0  0
   -0.8108   -0.0044   -1.1287 C   0  0  0  0  0  4           0  0  0
   -7.1621    0.4199   -1.7761 C   0  0  0  0  0  4           0  0  0
   -8.8278    3.2999   -6.4600 C   0  0  0  0  0  4           0  0  0
   -2.1991   -0.0022   -0.9808 C   0  0  0  0  0  4           0  0  0
   -8.6444    4.3355   -7.3817 C   0  0  0  0  0  4           0  0  0
   -9.5354    2.5526   -2.9434 C   0  0  0  0  0  4           0  0  0
    1.9812    0.0000   -1.2887 C   0  0  0  0  0  4           0  0  0
    5.9423    2.4807   -2.1618 C   0  0  0  0  0  4           0  0  0
    6.2410    1.1536   -1.4636 C   0  0  0  0  0  4           0  0  0
    4.2759    0.0000   -2.4251 C   0  0  0  0  0  4           0  0  0
    6.2950   -1.2894   -1.8227 C   0  0  0  0  0  4           0  0  0
   -9.6072    1.2130   -2.2469 C   0  0  0  0  0  4           0  0  0
    3.4941    0.0000   -1.1110 C   0  0  0  0  0  4           0  0  0
    7.8075   -1.3207   -2.0168 C   0  0  0  0  0  4           0  0  0
  1 13  1  0     0  0
  2 14  1  0     0  0
  3 15  1  0     0  0
  3 31  1  0     0  0
  4 30  2  0     0  0
  5 32  1  0     0  0
  6  7  1  0     0  0
  6 20  1  0     0  0
  7 17  2  0     0  0
  8 16  2  0     0  0
  8 18  1  0     0  0
  9 16  1  0     0  0
  9 19  2  0     0  0
 10 17  1  0     0  0
 10 18  1  0     0  0
 11 21  1  0     0  0
 11 30  1  0     0  0
 12 33  1  0     0  0
 12 34  1  0     0  0
 12 35  1  0     0  0
 13 14  1  0     0  0
 13 21  2  0     0  0
 14 23  2  0     0  0
 15 24  2  0     0  0
 15 25  1  0     0  0
 17 26  1  0     0  0
 18 22  2  0     0  0
 19 22  1  0     0  0
 19 24  1  0     0  0
 20 26  2  0     0  0
 20 36  1  0     0  0
 21 27  1  0     0  0
 22 28  1  0     0  0
 23 29  1  0     0  0
 25 28  2  0     0  0
 27 29  2  0     0  0
 30 36  1  0     0  0
 31 37  1  0     0  0
 32 33  1  0     0  0
 34 37  1  0     0  0
 35 38  1  0     0  0
M  END
> <standard_type>
pIC50

> <# Confs.>
25

> <canonical_smiles>
FC1=C(NC(CC2=CC(NC3=C(C=CC(OCCCN(CCO)CC)=C4)C4=NC=N3)=NN2)=O)C=CC=C1F

> <standard_relation>
=

> <Publication_ID>
nan

> <predicted_activity_value>
7.698970004336019

> <actual_activity_value>
8.1249387366083

> <Compound>
22

> <standard_units>
nM

> hash
400142330712513226

$$$$
22_
XXILIB    08252103423D 0   0.00000     0.00000

 38 41  0     1  0            999 V2000
  -13.0086   -1.3339   -2.2254 F   0  0  0  0  0  1           0  0  0
  -14.1931   -3.7397   -2.4436 F   0  0  0  0  0  1           0  0  0
    1.3663    0.0000   -0.0000 O   0  0  0  0  0  2           0  0  0
  -11.3513   -0.0444   -1.1815 O   0  0  0  0  0  2           0  0  0
    6.5368    2.5170   -3.4528 O   0  0  0  0  0  2           0  0  0
   -8.2411    1.3967   -0.1573 N   0  0  0  0  0  3           0  0  0
   -7.0496    1.1121    0.3886 N   0  0  0  0  0  3           0  0  0
   -4.7052   -0.0278    1.7957 N   0  0  0  0  0  3           0  0  0
   -2.4763   -0.0168    2.6806 N   0  0  0  0  0  3           0  0  0
   -5.1100    0.0092   -0.5554 N   0  0  0  0  0  3           0  0  0
  -10.2768   -0.9718   -3.0222 N   0  0  0  0  0  3           0  0  0
    5.7280    0.0000   -2.2120 N   0  0  2  0  0  3           0  0  0
  -12.2979   -2.3585   -2.7184 C   0  0  0  0  0  4           0  0  0
  -12.9176   -3.5994   -2.8302 C   0  0  0  0  0  4           0  0  0
   -0.0000    0.0000    0.0000 C   0  0  0  0  0  4           0  0  0
   -3.8122   -0.0343    2.7951 C   0  0  0  0  0  4           0  0  0
   -6.3730    0.5042   -0.5983 C   0  0  0  0  0  4           0  0  0
   -4.2076    0.0151    0.5349 C   0  0  0  0  0  4           0  0  0
   -1.9804   -0.0024    1.4364 C   0  0  0  0  0  4           0  0  0
   -8.3681    1.0033   -1.4591 C   0  0  0  0  0  4           0  0  0
  -10.9665   -2.1956   -3.1112 C   0  0  0  0  0  4           0  0  0
   -2.8094    0.0054    0.2974 C   0  0  0  0  0  4           0  0  0
  -12.2301   -4.6967   -3.3355 C   0  0  0  0  0  4           0  0  0
   -0.5976    0.0000    1.2656 C   0  0  0  0  0  4           0  0  0
   -0.8108   -0.0044   -1.1287 C   0  0  0  0  0  4           0  0  0
   -7.1621    0.4199   -1.7761 C   0  0  0  0  0  4           0  0  0
  -10.2731   -3.3018   -3.6202 C   0  0  0  0  0  4           0  0  0
   -2.1991   -0.0022   -0.9808 C   0  0  0  0  0  4           0  0  0
  -10.9032   -4.5453   -3.7324 C   0  0  0  0  0  4           0  0  0
  -10.5133    0.0145   -2.0809 C   0  0  0  0  0  4           0  0  0
    1.9812    0.0000   -1.2887 C   0  0  0  0  0  4           0  0  0
    5.9423    2.4807   -2.1618 C   0  0  0  0  0  4           0  0  0
    6.2410    1.1536   -1.4636 C   0  0  0  0  0  4           0  0  0
    4.2759    0.0000   -2.4251 C   0  0  0  0  0  4           0  0  0
    6.2950   -1.2894   -1.8227 C   0  0  0  0  0  4           0  0  0
   -9.6072    1.2130   -2.2469 C   0  0  0  0  0  4           0  0  0
    3.4941    0.0000   -1.1110 C   0  0  0  0  0  4           0  0  0
    7.8075   -1.3207   -2.0168 C   0  0  0  0  0  4           0  0  0
  1 13  1  0     0  0
  2 14  1  0     0  0
  3 15  1  0     0  0
  3 31  1  0     0  0
  4 30  2  0     0  0
  5 32  1  0     0  0
  6  7  1  0     0  0
  6 20  1  0     0  0
  7 17  2  0     0  0
  8 16  2  0     0  0
  8 18  1  0     0  0
  9 16  1  0     0  0
  9 19  2  0     0  0
 10 17  1  0     0  0
 10 18  1  0     0  0
 11 21  1  0     0  0
 11 30  1  0     0  0
 12 33  1  0     0  0
 12 34  1  0     0  0
 12 35  1  0     0  0
 13 14  1  0     0  0
 13 21  2  0     0  0
 14 23  2  0     0  0
 15 24  2  0     0  0
 15 25  1  0     0  0
 17 26  1  0     0  0
 18 22  2  0     0  0
 19 22  1  0     0  0
 19 24  1  0     0  0
 20 26  2  0     0  0
 20 36  1  0     0  0
 21 27  1  0     0  0
 22 28  1  0     0  0
 23 29  1  0     0  0
 25 28  2  0     0  0
 27 29  2  0     0  0
 30 36  1  0     0  0
 31 37  1  0     0  0
 32 33  1  0     0  0
 34 37  1  0     0  0
 35 38  1  0     0  0
M  END
> <standard_type>
pIC50

> <# Confs.>
25

> <canonical_smiles>
FC1=C(NC(CC2=CC(NC3=C(C=CC(OCCCN(CCO)CC)=C4)C4=NC=N3)=NN2)=O)C=CC=C1F

> <standard_relation>
=

> <Publication_ID>
nan

> <predicted_activity_value>
7.698970004336019

> <actual_activity_value>
8.1249387366083

> <Compound>
22

> <standard_units>
nM

> hash
400142330712513226

$$$$
22_
XXILIB    08252103423D 0   0.00000     0.00000

 38 41  0     1  0            999 V2000
   -8.4961    5.1650   -3.3435 F   0  0  0  0  0  1           0  0  0
   -8.1557    7.1399   -5.1387 F   0  0  0  0  0  1           0  0  0
    1.3663   -0.0000   -0.0000 O   0  0  0  0  0  2           0  0  0
   -9.9543    3.5814   -2.4137 O   0  0  0  0  0  2           0  0  0
    6.3221   -3.5800   -1.6243 O   0  0  0  0  0  2           0  0  0
   -8.2411    1.3967   -0.1573 N   0  0  0  0  0  3           0  0  0
   -7.0496    1.1121    0.3886 N   0  0  0  0  0  3           0  0  0
   -4.7052   -0.0278    1.7957 N   0  0  0  0  0  3           0  0  0
   -2.4763   -0.0168    2.6806 N   0  0  0  0  0  3           0  0  0
   -5.1100    0.0092   -0.5554 N   0  0  0  0  0  3           0  0  0
   -8.9757    2.4717   -4.2063 N   0  0  0  0  0  3           0  0  0
    5.4912   -1.1726   -0.1949 N   0  0  2  0  0  3           0  0  0
   -8.5504    4.8640   -4.6490 C   0  0  0  0  0  4           0  0  0
   -8.3714    5.8901   -5.5719 C   0  0  0  0  0  4           0  0  0
   -0.0000    0.0000    0.0000 C   0  0  0  0  0  4           0  0  0
   -3.8122   -0.0343    2.7951 C   0  0  0  0  0  4           0  0  0
   -6.3730    0.5042   -0.5983 C   0  0  0  0  0  4           0  0  0
   -4.2076    0.0151    0.5349 C   0  0  0  0  0  4           0  0  0
   -1.9804   -0.0024    1.4364 C   0  0  0  0  0  4           0  0  0
   -8.3681    1.0033   -1.4591 C   0  0  0  0  0  4           0  0  0
   -8.7823    3.5558   -5.0830 C   0  0  0  0  0  4           0  0  0
   -2.8094    0.0054    0.2974 C   0  0  0  0  0  4           0  0  0
   -8.4161    5.6363   -6.9377 C   0  0  0  0  0  4           0  0  0
   -0.5976    0.0000    1.2656 C   0  0  0  0  0  4           0  0  0
   -0.8108   -0.0044   -1.1287 C   0  0  0  0  0  4           0  0  0
   -7.1621    0.4199   -1.7761 C   0  0  0  0  0  4           0  0  0
   -8.8278    3.2999   -6.4600 C   0  0  0  0  0  4           0  0  0
   -2.1991   -0.0022   -0.9808 C   0  0  0  0  0  4           0  0  0
   -8.6444    4.3355   -7.3817 C   0  0  0  0  0  4           0  0  0
   -9.5354    2.5526   -2.9434 C   0  0  0  0  0  4           0  0  0
    1.9812    0.0000   -1.2887 C   0  0  0  0  0  4           0  0  0
    5.9603   -2.3914   -2.3155 C   0  0  0  0  0  4           0  0  0
    6.2402   -1.1574   -1.4570 C   0  0  0  0  0  4           0  0  0
    4.0317   -1.2092   -0.3450 C   0  0  0  0  0  4           0  0  0
    5.9840   -0.2503    0.8259 C   0  0  0  0  0  4           0  0  0
   -9.6072    1.2130   -2.2469 C   0  0  0  0  0  4           0  0  0
    3.4941    0.0000   -1.1110 C   0  0  0  0  0  4           0  0  0
    7.4289   -0.5543    1.2086 C   0  0  0  0  0  4           0  0  0
  1 13  1  0     0  0
  2 14  1  0     0  0
  3 15  1  0     0  0
  3 31  1  0     0  0
  4 30  2  0     0  0
  5 32  1  0     0  0
  6  7  1  0     0  0
  6 20  1  0     0  0
  7 17  2  0     0  0
  8 16  2  0     0  0
  8 18  1  0     0  0
  9 16  1  0     0  0
  9 19  2  0     0  0
 10 17  1  0     0  0
 10 18  1  0     0  0
 11 21  1  0     0  0
 11 30  1  0     0  0
 12 33  1  0     0  0
 12 34  1  0     0  0
 12 35  1  0     0  0
 13 14  1  0     0  0
 13 21  2  0     0  0
 14 23  2  0     0  0
 15 24  2  0     0  0
 15 25  1  0     0  0
 17 26  1  0     0  0
 18 22  2  0     0  0
 19 22  1  0     0  0
 19 24  1  0     0  0
 20 26  2  0     0  0
 20 36  1  0     0  0
 21 27  1  0     0  0
 22 28  1  0     0  0
 23 29  1  0     0  0
 25 28  2  0     0  0
 27 29  2  0     0  0
 30 36  1  0     0  0
 31 37  1  0     0  0
 32 33  1  0     0  0
 34 37  1  0     0  0
 35 38  1  0     0  0
M  END
> <standard_type>
pIC50

> <# Confs.>
25

> <canonical_smiles>
FC1=C(NC(CC2=CC(NC3=C(C=CC(OCCCN(CCO)CC)=C4)C4=NC=N3)=NN2)=O)C=CC=C1F

> <standard_relation>
=

> <Publication_ID>
nan

> <predicted_activity_value>
7.698970004336019

> <actual_activity_value>
8.1249387366083

> <Compound>
22

> <standard_units>
nM

> hash
400142330712513226

$$$$
22_
XXILIB    08252103423D 0   0.00000     0.00000

 38 41  0     1  0            999 V2000
  -10.6540    4.7970   -4.2746 F   0  0  0  0  0  1           0  0  0
  -10.1671    6.7888   -6.0166 F   0  0  0  0  0  1           0  0  0
    1.3663   -0.0000   -0.0000 O   0  0  0  0  0  2           0  0  0
   -9.9543    3.5814   -2.4137 O   0  0  0  0  0  2           0  0  0
    6.3221   -3.5800   -1.6243 O   0  0  0  0  0  2           0  0  0
   -8.2411    1.3967   -0.1573 N   0  0  0  0  0  3           0  0  0
   -7.0496    1.1121    0.3886 N   0  0  0  0  0  3           0  0  0
   -4.7052   -0.0278    1.7957 N   0  0  0  0  0  3           0  0  0
   -2.4763   -0.0168    2.6806 N   0  0  0  0  0  3           0  0  0
   -5.1100    0.0092   -0.5554 N   0  0  0  0  0  3           0  0  0
   -8.9757    2.4717   -4.2063 N   0  0  0  0  0  3           0  0  0
    5.4912   -1.1726   -0.1949 N   0  0  2  0  0  3           0  0  0
   -9.6086    4.6828   -5.1064 C   0  0  0  0  0  4           0  0  0
   -9.3616    5.7178   -6.0033 C   0  0  0  0  0  4           0  0  0
   -0.0000    0.0000    0.0000 C   0  0  0  0  0  4           0  0  0
   -3.8122   -0.0343    2.7951 C   0  0  0  0  0  4           0  0  0
   -6.3730    0.5042   -0.5983 C   0  0  0  0  0  4           0  0  0
   -4.2076    0.0151    0.5349 C   0  0  0  0  0  4           0  0  0
   -1.9804   -0.0024    1.4364 C   0  0  0  0  0  4           0  0  0
   -8.3681    1.0033   -1.4591 C   0  0  0  0  0  4           0  0  0
   -8.7823    3.5558   -5.0830 C   0  0  0  0  0  4           0  0  0
   -2.8094    0.0054    0.2974 C   0  0  0  0  0  4           0  0  0
   -8.2914    5.6542   -6.8880 C   0  0  0  0  0  4           0  0  0
   -0.5976    0.0000    1.2656 C   0  0  0  0  0  4           0  0  0
   -0.8108   -0.0044   -1.1287 C   0  0  0  0  0  4           0  0  0
   -7.1621    0.4199   -1.7761 C   0  0  0  0  0  4           0  0  0
   -7.7036    3.4914   -5.9751 C   0  0  0  0  0  4           0  0  0
   -2.1991   -0.0022   -0.9808 C   0  0  0  0  0  4           0  0  0
   -7.4598    4.5365   -6.8718 C   0  0  0  0  0  4           0  0  0
   -9.5354    2.5526   -2.9434 C   0  0  0  0  0  4           0  0  0
    1.9812    0.0000   -1.2887 C   0  0  0  0  0  4           0  0  0
    5.9603   -2.3914   -2.3155 C   0  0  0  0  0  4           0  0  0
    6.2402   -1.1574   -1.4570 C   0  0  0  0  0  4           0  0  0
    4.0317   -1.2092   -0.3450 C   0  0  0  0  0  4           0  0  0
    5.9840   -0.2503    0.8259 C   0  0  0  0  0  4           0  0  0
   -9.6072    1.2130   -2.2469 C   0  0  0  0  0  4           0  0  0
    3.4941    0.0000   -1.1110 C   0  0  0  0  0  4           0  0  0
    7.4289   -0.5543    1.2086 C   0  0  0  0  0  4           0  0  0
  1 13  1  0     0  0
  2 14  1  0     0  0
  3 15  1  0     0  0
  3 31  1  0     0  0
  4 30  2  0     0  0
  5 32  1  0     0  0
  6  7  1  0     0  0
  6 20  1  0     0  0
  7 17  2  0     0  0
  8 16  2  0     0  0
  8 18  1  0     0  0
  9 16  1  0     0  0
  9 19  2  0     0  0
 10 17  1  0     0  0
 10 18  1  0     0  0
 11 21  1  0     0  0
 11 30  1  0     0  0
 12 33  1  0     0  0
 12 34  1  0     0  0
 12 35  1  0     0  0
 13 14  1  0     0  0
 13 21  2  0     0  0
 14 23  2  0     0  0
 15 24  2  0     0  0
 15 25  1  0     0  0
 17 26  1  0     0  0
 18 22  2  0     0  0
 19 22  1  0     0  0
 19 24  1  0     0  0
 20 26  2  0     0  0
 20 36  1  0     0  0
 21 27  1  0     0  0
 22 28  1  0     0  0
 23 29  1  0     0  0
 25 28  2  0     0  0
 27 29  2  0     0  0
 30 36  1  0     0  0
 31 37  1  0     0  0
 32 33  1  0     0  0
 34 37  1  0     0  0
 35 38  1  0     0  0
M  END
> <standard_type>
pIC50

> <# Confs.>
25

> <canonical_smiles>
FC1=C(NC(CC2=CC(NC3=C(C=CC(OCCCN(CCO)CC)=C4)C4=NC=N3)=NN2)=O)C=CC=C1F

> <standard_relation>
=

> <Publication_ID>
nan

> <predicted_activity_value>
7.698970004336019

> <actual_activity_value>
8.1249387366083

> <Compound>
22

> <standard_units>
nM

> hash
400142330712513226

$$$$
22_
XXILIB    08252103423D 0   0.00000     0.00000

 38 41  0     1  0            999 V2000
  -13.1236    0.7445   -2.2087 F   0  0  0  0  0  1           0  0  0
  -14.5415    3.0249   -2.3758 F   0  0  0  0  0  1           0  0  0
    1.3663    0.0000   -0.0000 O   0  0  0  0  0  2           0  0  0
  -11.3584   -0.4201   -1.2299 O   0  0  0  0  0  2           0  0  0
    6.5368    2.5170   -3.4528 O   0  0  0  0  0  2           0  0  0
   -8.1365   -1.6094   -0.2274 N   0  0  0  0  0  3           0  0  0
   -6.9731   -1.2557    0.3382 N   0  0  0  0  0  3           0  0  0
   -4.7052   -0.0278    1.7957 N   0  0  0  0  0  3           0  0  0
   -2.4763   -0.0168    2.6806 N   0  0  0  0  0  3           0  0  0
   -5.1100    0.0092   -0.5554 N   0  0  0  0  0  3           0  0  0
  -10.3781    0.6662   -3.0359 N   0  0  0  0  0  3           0  0  0
    5.7280    0.0000   -2.2120 N   0  0  2  0  0  3           0  0  0
  -12.5197    1.8442   -2.6817 C   0  0  0  0  0  4           0  0  0
  -13.2586    3.0206   -2.7634 C   0  0  0  0  0  4           0  0  0
    0.0000   -0.0000    0.0000 C   0  0  0  0  0  4           0  0  0
   -3.8122   -0.0343    2.7951 C   0  0  0  0  0  4           0  0  0
   -6.3385   -0.5640   -0.6210 C   0  0  0  0  0  4           0  0  0
   -4.2076    0.0151    0.5349 C   0  0  0  0  0  4           0  0  0
   -1.9804   -0.0024    1.4364 C   0  0  0  0  0  4           0  0  0
   -8.2884   -1.1743   -1.5132 C   0  0  0  0  0  4           0  0  0
  -11.1824    1.8201   -3.0872 C   0  0  0  0  0  4           0  0  0
   -2.8094    0.0054    0.2974 C   0  0  0  0  0  4           0  0  0
  -12.6842    4.1913   -3.2446 C   0  0  0  0  0  4           0  0  0
   -0.5976    0.0000    1.2656 C   0  0  0  0  0  4           0  0  0
   -0.8108   -0.0044   -1.1287 C   0  0  0  0  0  4           0  0  0
   -7.1308   -0.4853   -1.7971 C   0  0  0  0  0  4           0  0  0
  -10.6033    3.0002   -3.5727 C   0  0  0  0  0  4           0  0  0
   -2.1991   -0.0022   -0.9808 C   0  0  0  0  0  4           0  0  0
  -11.3511    4.1795   -3.6494 C   0  0  0  0  0  4           0  0  0
  -10.5108   -0.3629   -2.1203 C   0  0  0  0  0  4           0  0  0
    1.9812    0.0000   -1.2887 C   0  0  0  0  0  4           0  0  0
    5.9423    2.4807   -2.1618 C   0  0  0  0  0  4           0  0  0
    6.2410    1.1536   -1.4636 C   0  0  0  0  0  4           0  0  0
    4.2759    0.0000   -2.4251 C   0  0  0  0  0  4           0  0  0
    6.2950   -1.2894   -1.8227 C   0  0  0  0  0  4           0  0  0
   -9.4957   -1.4641   -2.3246 C   0  0  0  0  0  4           0  0  0
    3.4941    0.0000   -1.1110 C   0  0  0  0  0  4           0  0  0
    7.8075   -1.3207   -2.0168 C   0  0  0  0  0  4           0  0  0
  1 13  1  0     0  0
  2 14  1  0     0  0
  3 15  1  0     0  0
  3 31  1  0     0  0
  4 30  2  0     0  0
  5 32  1  0     0  0
  6  7  1  0     0  0
  6 20  1  0     0  0
  7 17  2  0     0  0
  8 16  2  0     0  0
  8 18  1  0     0  0
  9 16  1  0     0  0
  9 19  2  0     0  0
 10 17  1  0     0  0
 10 18  1  0     0  0
 11 21  1  0     0  0
 11 30  1  0     0  0
 12 33  1  0     0  0
 12 34  1  0     0  0
 12 35  1  0     0  0
 13 14  1  0     0  0
 13 21  2  0     0  0
 14 23  2  0     0  0
 15 24  2  0     0  0
 15 25  1  0     0  0
 17 26  1  0     0  0
 18 22  2  0     0  0
 19 22  1  0     0  0
 19 24  1  0     0  0
 20 26  2  0     0  0
 20 36  1  0     0  0
 21 27  1  0     0  0
 22 28  1  0     0  0
 23 29  1  0     0  0
 25 28  2  0     0  0
 27 29  2  0     0  0
 30 36  1  0     0  0
 31 37  1  0     0  0
 32 33  1  0     0  0
 34 37  1  0     0  0
 35 38  1  0     0  0
M  END
> <standard_type>
pIC50

> <# Confs.>
25

> <canonical_smiles>
FC1=C(NC(CC2=CC(NC3=C(C=CC(OCCCN(CCO)CC)=C4)C4=NC=N3)=NN2)=O)C=CC=C1F

> <standard_relation>
=

> <Publication_ID>
nan

> <predicted_activity_value>
7.698970004336019

> <actual_activity_value>
8.1249387366083

> <Compound>
22

> <standard_units>
nM

> hash
400142330712513226

$$$$
22_
XXILIB    08252103423D 0   0.00000     0.00000

 38 41  0     1  0            999 V2000
  -13.0086   -1.3339   -2.2254 F   0  0  0  0  0  1           0  0  0
  -14.1931   -3.7397   -2.4436 F   0  0  0  0  0  1           0  0  0
    1.3663   -0.0000   -0.0000 O   0  0  0  0  0  2           0  0  0
  -11.3513   -0.0444   -1.1815 O   0  0  0  0  0  2           0  0  0
    6.3221   -3.5800   -1.6243 O   0  0  0  0  0  2           0  0  0
   -8.2411    1.3967   -0.1573 N   0  0  0  0  0  3           0  0  0
   -7.0496    1.1121    0.3886 N   0  0  0  0  0  3           0  0  0
   -4.7052   -0.0278    1.7957 N   0  0  0  0  0  3           0  0  0
   -2.4763   -0.0168    2.6806 N   0  0  0  0  0  3           0  0  0
   -5.1100    0.0092   -0.5554 N   0  0  0  0  0  3           0  0  0
  -10.2768   -0.9718   -3.0222 N   0  0  0  0  0  3           0  0  0
    5.4912   -1.1726   -0.1949 N   0  0  2  0  0  3           0  0  0
  -12.2979   -2.3585   -2.7184 C   0  0  0  0  0  4           0  0  0
  -12.9176   -3.5994   -2.8302 C   0  0  0  0  0  4           0  0  0
   -0.0000    0.0000    0.0000 C   0  0  0  0  0  4           0  0  0
   -3.8122   -0.0343    2.7951 C   0  0  0  0  0  4           0  0  0
   -6.3730    0.5042   -0.5983 C   0  0  0  0  0  4           0  0  0
   -4.2076    0.0151    0.5349 C   0  0  0  0  0  4           0  0  0
   -1.9804   -0.0024    1.4364 C   0  0  0  0  0  4           0  0  0
   -8.3681    1.0033   -1.4591 C   0  0  0  0  0  4           0  0  0
  -10.9665   -2.1956   -3.1112 C   0  0  0  0  0  4           0  0  0
   -2.8094    0.0054    0.2974 C   0  0  0  0  0  4           0  0  0
  -12.2301   -4.6967   -3.3355 C   0  0  0  0  0  4           0  0  0
   -0.5976    0.0000    1.2656 C   0  0  0  0  0  4           0  0  0
   -0.8108   -0.0044   -1.1287 C   0  0  0  0  0  4           0  0  0
   -7.1621    0.4199   -1.7761 C   0  0  0  0  0  4           0  0  0
  -10.2731   -3.3018   -3.6202 C   0  0  0  0  0  4           0  0  0
   -2.1991   -0.0022   -0.9808 C   0  0  0  0  0  4           0  0  0
  -10.9032   -4.5453   -3.7324 C   0  0  0  0  0  4           0  0  0
  -10.5133    0.0145   -2.0809 C   0  0  0  0  0  4           0  0  0
    1.9812    0.0000   -1.2887 C   0  0  0  0  0  4           0  0  0
    5.9603   -2.3914   -2.3155 C   0  0  0  0  0  4           0  0  0
    6.2402   -1.1574   -1.4570 C   0  0  0  0  0  4           0  0  0
    4.0317   -1.2092   -0.3450 C   0  0  0  0  0  4           0  0  0
    5.9840   -0.2503    0.8259 C   0  0  0  0  0  4           0  0  0
   -9.6072    1.2130   -2.2469 C   0  0  0  0  0  4           0  0  0
    3.4941    0.0000   -1.1110 C   0  0  0  0  0  4           0  0  0
    7.4289   -0.5543    1.2086 C   0  0  0  0  0  4           0  0  0
  1 13  1  0     0  0
  2 14  1  0     0  0
  3 15  1  0     0  0
  3 31  1  0     0  0
  4 30  2  0     0  0
  5 32  1  0     0  0
  6  7  1  0     0  0
  6 20  1  0     0  0
  7 17  2  0     0  0
  8 16  2  0     0  0
  8 18  1  0     0  0
  9 16  1  0     0  0
  9 19  2  0     0  0
 10 17  1  0     0  0
 10 18  1  0     0  0
 11 21  1  0     0  0
 11 30  1  0     0  0
 12 33  1  0     0  0
 12 34  1  0     0  0
 12 35  1  0     0  0
 13 14  1  0     0  0
 13 21  2  0     0  0
 14 23  2  0     0  0
 15 24  2  0     0  0
 15 25  1  0     0  0
 17 26  1  0     0  0
 18 22  2  0     0  0
 19 22  1  0     0  0
 19 24  1  0     0  0
 20 26  2  0     0  0
 20 36  1  0     0  0
 21 27  1  0     0  0
 22 28  1  0     0  0
 23 29  1  0     0  0
 25 28  2  0     0  0
 27 29  2  0     0  0
 30 36  1  0     0  0
 31 37  1  0     0  0
 32 33  1  0     0  0
 34 37  1  0     0  0
 35 38  1  0     0  0
M  END
> <standard_type>
pIC50

> <# Confs.>
25

> <canonical_smiles>
FC1=C(NC(CC2=CC(NC3=C(C=CC(OCCCN(CCO)CC)=C4)C4=NC=N3)=NN2)=O)C=CC=C1F

> <standard_relation>
=

> <Publication_ID>
nan

> <predicted_activity_value>
7.698970004336019

> <actual_activity_value>
8.1249387366083

> <Compound>
22

> <standard_units>
nM

> hash
400142330712513226

$$$$
22_
XXILIB    08252103423D 0   0.00000     0.00000

 38 41  0     1  0            999 V2000
  -10.1866   -5.0232   -4.5408 F   0  0  0  0  0  1           0  0  0
   -9.4722   -6.8979   -6.3335 F   0  0  0  0  0  1           0  0  0
    1.3663   -0.0000   -0.0000 O   0  0  0  0  0  2           0  0  0
   -9.6196   -3.8453   -2.5940 O   0  0  0  0  0  2           0  0  0
    6.3221   -3.5800   -1.6243 O   0  0  0  0  0  2           0  0  0
   -8.1365   -1.6094   -0.2274 N   0  0  0  0  0  3           0  0  0
   -6.9731   -1.2557    0.3382 N   0  0  0  0  0  3           0  0  0
   -4.7052   -0.0278    1.7957 N   0  0  0  0  0  3           0  0  0
   -2.4763   -0.0168    2.6806 N   0  0  0  0  0  3           0  0  0
   -5.1100    0.0092   -0.5554 N   0  0  0  0  0  3           0  0  0
   -8.7051   -2.5773   -4.3141 N   0  0  0  0  0  3           0  0  0
    5.4912   -1.1726   -0.1949 N   0  0  2  0  0  3           0  0  0
   -9.1274   -4.7890   -5.3290 C   0  0  0  0  0  4           0  0  0
   -8.7649   -5.7622   -6.2553 C   0  0  0  0  0  4           0  0  0
    0.0000   -0.0000    0.0000 C   0  0  0  0  0  4           0  0  0
   -3.8122   -0.0343    2.7951 C   0  0  0  0  0  4           0  0  0
   -6.3385   -0.5640   -0.6210 C   0  0  0  0  0  4           0  0  0
   -4.2076    0.0151    0.5349 C   0  0  0  0  0  4           0  0  0
   -1.9804   -0.0024    1.4364 C   0  0  0  0  0  4           0  0  0
   -8.2884   -1.1743   -1.5132 C   0  0  0  0  0  4           0  0  0
   -8.3975   -3.6013   -5.2297 C   0  0  0  0  0  4           0  0  0
   -2.8094    0.0054    0.2974 C   0  0  0  0  0  4           0  0  0
   -7.6767   -5.5731   -7.0991 C   0  0  0  0  0  4           0  0  0
   -0.5976    0.0000    1.2656 C   0  0  0  0  0  4           0  0  0
   -0.8108   -0.0044   -1.1287 C   0  0  0  0  0  4           0  0  0
   -7.1308   -0.4853   -1.7971 C   0  0  0  0  0  4           0  0  0
   -7.3002   -3.4106   -6.0801 C   0  0  0  0  0  4           0  0  0
   -2.1991   -0.0022   -0.9808 C   0  0  0  0  0  4           0  0  0
   -6.9433   -4.3918   -7.0104 C   0  0  0  0  0  4           0  0  0
   -9.2936   -2.7605   -3.0752 C   0  0  0  0  0  4           0  0  0
    1.9812    0.0000   -1.2887 C   0  0  0  0  0  4           0  0  0
    5.9603   -2.3914   -2.3155 C   0  0  0  0  0  4           0  0  0
    6.2402   -1.1574   -1.4570 C   0  0  0  0  0  4           0  0  0
    4.0317   -1.2092   -0.3450 C   0  0  0  0  0  4           0  0  0
    5.9840   -0.2503    0.8259 C   0  0  0  0  0  4           0  0  0
   -9.4957   -1.4641   -2.3246 C   0  0  0  0  0  4           0  0  0
    3.4941    0.0000   -1.1110 C   0  0  0  0  0  4           0  0  0
    7.4289   -0.5543    1.2086 C   0  0  0  0  0  4           0  0  0
  1 13  1  0     0  0
  2 14  1  0     0  0
  3 15  1  0     0  0
  3 31  1  0     0  0
  4 30  2  0     0  0
  5 32  1  0     0  0
  6  7  1  0     0  0
  6 20  1  0     0  0
  7 17  2  0     0  0
  8 16  2  0     0  0
  8 18  1  0     0  0
  9 16  1  0     0  0
  9 19  2  0     0  0
 10 17  1  0     0  0
 10 18  1  0     0  0
 11 21  1  0     0  0
 11 30  1  0     0  0
 12 33  1  0     0  0
 12 34  1  0     0  0
 12 35  1  0     0  0
 13 14  1  0     0  0
 13 21  2  0     0  0
 14 23  2  0     0  0
 15 24  2  0     0  0
 15 25  1  0     0  0
 17 26  1  0     0  0
 18 22  2  0     0  0
 19 22  1  0     0  0
 19 24  1  0     0  0
 20 26  2  0     0  0
 20 36  1  0     0  0
 21 27  1  0     0  0
 22 28  1  0     0  0
 23 29  1  0     0  0
 25 28  2  0     0  0
 27 29  2  0     0  0
 30 36  1  0     0  0
 31 37  1  0     0  0
 32 33  1  0     0  0
 34 37  1  0     0  0
 35 38  1  0     0  0
M  END
> <standard_type>
pIC50

> <# Confs.>
25

> <canonical_smiles>
FC1=C(NC(CC2=CC(NC3=C(C=CC(OCCCN(CCO)CC)=C4)C4=NC=N3)=NN2)=O)C=CC=C1F

> <standard_relation>
=

> <Publication_ID>
nan

> <predicted_activity_value>
7.698970004336019

> <actual_activity_value>
8.1249387366083

> <Compound>
22

> <standard_units>
nM

> hash
400142330712513226

$$$$
22_
XXILIB    08252103423D 0   0.00000     0.00000

 38 41  0     1  0            999 V2000
  -13.1236    0.7445   -2.2087 F   0  0  0  0  0  1           0  0  0
  -14.5415    3.0249   -2.3758 F   0  0  0  0  0  1           0  0  0
    1.3663   -0.0000   -0.0000 O   0  0  0  0  0  2           0  0  0
  -11.3584   -0.4201   -1.2299 O   0  0  0  0  0  2           0  0  0
    6.3221   -3.5800   -1.6243 O   0  0  0  0  0  2           0  0  0
   -8.1365   -1.6094   -0.2274 N   0  0  0  0  0  3           0  0  0
   -6.9731   -1.2557    0.3382 N   0  0  0  0  0  3           0  0  0
   -4.7052   -0.0278    1.7957 N   0  0  0  0  0  3           0  0  0
   -2.4763   -0.0168    2.6806 N   0  0  0  0  0  3           0  0  0
   -5.1100    0.0092   -0.5554 N   0  0  0  0  0  3           0  0  0
  -10.3781    0.6662   -3.0359 N   0  0  0  0  0  3           0  0  0
    5.4912   -1.1726   -0.1949 N   0  0  2  0  0  3           0  0  0
  -12.5197    1.8442   -2.6817 C   0  0  0  0  0  4           0  0  0
  -13.2586    3.0206   -2.7634 C   0  0  0  0  0  4           0  0  0
    0.0000   -0.0000    0.0000 C   0  0  0  0  0  4           0  0  0
   -3.8122   -0.0343    2.7951 C   0  0  0  0  0  4           0  0  0
   -6.3385   -0.5640   -0.6210 C   0  0  0  0  0  4           0  0  0
   -4.2076    0.0151    0.5349 C   0  0  0  0  0  4           0  0  0
   -1.9804   -0.0024    1.4364 C   0  0  0  0  0  4           0  0  0
   -8.2884   -1.1743   -1.5132 C   0  0  0  0  0  4           0  0  0
  -11.1824    1.8201   -3.0872 C   0  0  0  0  0  4           0  0  0
   -2.8094    0.0054    0.2974 C   0  0  0  0  0  4           0  0  0
  -12.6842    4.1913   -3.2446 C   0  0  0  0  0  4           0  0  0
   -0.5976    0.0000    1.2656 C   0  0  0  0  0  4           0  0  0
   -0.8108   -0.0044   -1.1287 C   0  0  0  0  0  4           0  0  0
   -7.1308   -0.4853   -1.7971 C   0  0  0  0  0  4           0  0  0
  -10.6033    3.0002   -3.5727 C   0  0  0  0  0  4           0  0  0
   -2.1991   -0.0022   -0.9808 C   0  0  0  0  0  4           0  0  0
  -11.3511    4.1795   -3.6494 C   0  0  0  0  0  4           0  0  0
  -10.5108   -0.3629   -2.1203 C   0  0  0  0  0  4           0  0  0
    1.9812    0.0000   -1.2887 C   0  0  0  0  0  4           0  0  0
    5.9603   -2.3914   -2.3155 C   0  0  0  0  0  4           0  0  0
    6.2402   -1.1574   -1.4570 C   0  0  0  0  0  4           0  0  0
    4.0317   -1.2092   -0.3450 C   0  0  0  0  0  4           0  0  0
    5.9840   -0.2503    0.8259 C   0  0  0  0  0  4           0  0  0
   -9.4957   -1.4641   -2.3246 C   0  0  0  0  0  4           0  0  0
    3.4941    0.0000   -1.1110 C   0  0  0  0  0  4           0  0  0
    7.4289   -0.5543    1.2086 C   0  0  0  0  0  4           0  0  0
  1 13  1  0     0  0
  2 14  1  0     0  0
  3 15  1  0     0  0
  3 31  1  0     0  0
  4 30  2  0     0  0
  5 32  1  0     0  0
  6  7  1  0     0  0
  6 20  1  0     0  0
  7 17  2  0     0  0
  8 16  2  0     0  0
  8 18  1  0     0  0
  9 16  1  0     0  0
  9 19  2  0     0  0
 10 17  1  0     0  0
 10 18  1  0     0  0
 11 21  1  0     0  0
 11 30  1  0     0  0
 12 33  1  0     0  0
 12 34  1  0     0  0
 12 35  1  0     0  0
 13 14  1  0     0  0
 13 21  2  0     0  0
 14 23  2  0     0  0
 15 24  2  0     0  0
 15 25  1  0     0  0
 17 26  1  0     0  0
 18 22  2  0     0  0
 19 22  1  0     0  0
 19 24  1  0     0  0
 20 26  2  0     0  0
 20 36  1  0     0  0
 21 27  1  0     0  0
 22 28  1  0     0  0
 23 29  1  0     0  0
 25 28  2  0     0  0
 27 29  2  0     0  0
 30 36  1  0     0  0
 31 37  1  0     0  0
 32 33  1  0     0  0
 34 37  1  0     0  0
 35 38  1  0     0  0
M  END
> <standard_type>
pIC50

> <# Confs.>
25

> <canonical_smiles>
FC1=C(NC(CC2=CC(NC3=C(C=CC(OCCCN(CCO)CC)=C4)C4=NC=N3)=NN2)=O)C=CC=C1F

> <standard_relation>
=

> <Publication_ID>
nan

> <predicted_activity_value>
7.698970004336019

> <actual_activity_value>
8.1249387366083

> <Compound>
22

> <standard_units>
nM

> hash
400142330712513226

$$$$
22_
XXILIB    08252103423D 0   0.00000     0.00000

 38 41  0     1  0            999 V2000
  -11.6190    1.8585   -0.7409 F   0  0  0  0  0  1           0  0  0
  -13.1420    4.0618   -0.9953 F   0  0  0  0  0  1           0  0  0
    1.3663    0.0000   -0.0000 O   0  0  0  0  0  2           0  0  0
  -11.3584   -0.4201   -1.2299 O   0  0  0  0  0  2           0  0  0
    5.8137    1.0630    2.7056 O   0  0  0  0  0  2           0  0  0
   -8.1365   -1.6094   -0.2274 N   0  0  0  0  0  3           0  0  0
   -6.9731   -1.2557    0.3382 N   0  0  0  0  0  3           0  0  0
   -4.7052   -0.0278    1.7957 N   0  0  0  0  0  3           0  0  0
   -2.4763   -0.0168    2.6806 N   0  0  0  0  0  3           0  0  0
   -5.1100    0.0092   -0.5554 N   0  0  0  0  0  3           0  0  0
  -10.3781    0.6662   -3.0359 N   0  0  0  0  0  3           0  0  0
    5.4912    1.1726   -0.1949 N   0  0  2  0  0  3           0  0  0
  -11.7821    2.3904   -1.9610 C   0  0  0  0  0  4           0  0  0
  -12.5695    3.5312   -2.0847 C   0  0  0  0  0  4           0  0  0
    0.0000   -0.0000    0.0000 C   0  0  0  0  0  4           0  0  0
   -3.8122   -0.0343    2.7951 C   0  0  0  0  0  4           0  0  0
   -6.3385   -0.5640   -0.6210 C   0  0  0  0  0  4           0  0  0
   -4.2076    0.0151    0.5349 C   0  0  0  0  0  4           0  0  0
   -1.9804   -0.0024    1.4364 C   0  0  0  0  0  4           0  0  0
   -8.2884   -1.1743   -1.5132 C   0  0  0  0  0  4           0  0  0
  -11.1824    1.8201   -3.0872 C   0  0  0  0  0  4           0  0  0
   -2.8094    0.0054    0.2974 C   0  0  0  0  0  4           0  0  0
  -12.7723    4.1263   -3.3243 C   0  0  0  0  0  4           0  0  0
   -0.5976    0.0000    1.2656 C   0  0  0  0  0  4           0  0  0
   -0.8108   -0.0044   -1.1287 C   0  0  0  0  0  4           0  0  0
   -7.1308   -0.4853   -1.7971 C   0  0  0  0  0  4           0  0  0
  -11.3872    2.4198   -4.3371 C   0  0  0  0  0  4           0  0  0
   -2.1991   -0.0022   -0.9808 C   0  0  0  0  0  4           0  0  0
  -12.1774    3.5678   -4.4536 C   0  0  0  0  0  4           0  0  0
  -10.5108   -0.3629   -2.1203 C   0  0  0  0  0  4           0  0  0
    1.9812    0.0000   -1.2887 C   0  0  0  0  0  4           0  0  0
    5.4593   -0.0893    1.9519 C   0  0  0  0  0  4           0  0  0
    6.0072    0.0039    0.5274 C   0  0  0  0  0  4           0  0  0
    4.0317    1.2092   -0.3450 C   0  0  0  0  0  4           0  0  0
    6.2445    1.5397   -1.3922 C   0  0  0  0  0  4           0  0  0
   -9.4957   -1.4641   -2.3246 C   0  0  0  0  0  4           0  0  0
    3.4941    0.0000   -1.1110 C   0  0  0  0  0  4           0  0  0
    7.6956    1.8750   -1.0633 C   0  0  0  0  0  4           0  0  0
  1 13  1  0     0  0
  2 14  1  0     0  0
  3 15  1  0     0  0
  3 31  1  0     0  0
  4 30  2  0     0  0
  5 32  1  0     0  0
  6  7  1  0     0  0
  6 20  1  0     0  0
  7 17  2  0     0  0
  8 16  2  0     0  0
  8 18  1  0     0  0
  9 16  1  0     0  0
  9 19  2  0     0  0
 10 17  1  0     0  0
 10 18  1  0     0  0
 11 21  1  0     0  0
 11 30  1  0     0  0
 12 33  1  0     0  0
 12 34  1  0     0  0
 12 35  1  0     0  0
 13 14  1  0     0  0
 13 21  2  0     0  0
 14 23  2  0     0  0
 15 24  2  0     0  0
 15 25  1  0     0  0
 17 26  1  0     0  0
 18 22  2  0     0  0
 19 22  1  0     0  0
 19 24  1  0     0  0
 20 26  2  0     0  0
 20 36  1  0     0  0
 21 27  1  0     0  0
 22 28  1  0     0  0
 23 29  1  0     0  0
 25 28  2  0     0  0
 27 29  2  0     0  0
 30 36  1  0     0  0
 31 37  1  0     0  0
 32 33  1  0     0  0
 34 37  1  0     0  0
 35 38  1  0     0  0
M  END
> <standard_type>
pIC50

> <# Confs.>
25

> <canonical_smiles>
FC1=C(NC(CC2=CC(NC3=C(C=CC(OCCCN(CCO)CC)=C4)C4=NC=N3)=NN2)=O)C=CC=C1F

> <standard_relation>
=

> <Publication_ID>
nan

> <predicted_activity_value>
7.698970004336019

> <actual_activity_value>
8.1249387366083

> <Compound>
22

> <standard_units>
nM

> hash
400142330712513226

$$$$
22_
XXILIB    08252103423D 0   0.00000     0.00000

 38 41  0     1  0            999 V2000
  -11.6190    1.8585   -0.7409 F   0  0  0  0  0  1           0  0  0
  -13.1420    4.0618   -0.9953 F   0  0  0  0  0  1           0  0  0
    1.3663    0.0000   -0.0000 O   0  0  0  0  0  2           0  0  0
  -11.3584   -0.4201   -1.2299 O   0  0  0  0  0  2           0  0  0
    6.5368    2.5170   -3.4528 O   0  0  0  0  0  2           0  0  0
   -8.1365   -1.6094   -0.2274 N   0  0  0  0  0  3           0  0  0
   -6.9731   -1.2557    0.3382 N   0  0  0  0  0  3           0  0  0
   -4.7052   -0.0278    1.7957 N   0  0  0  0  0  3           0  0  0
   -2.4763   -0.0168    2.6806 N   0  0  0  0  0  3           0  0  0
   -5.1100    0.0092   -0.5554 N   0  0  0  0  0  3           0  0  0
  -10.3781    0.6662   -3.0359 N   0  0  0  0  0  3           0  0  0
    5.7280    0.0000   -2.2120 N   0  0  2  0  0  3           0  0  0
  -11.7821    2.3904   -1.9610 C   0  0  0  0  0  4           0  0  0
  -12.5695    3.5312   -2.0847 C   0  0  0  0  0  4           0  0  0
    0.0000   -0.0000    0.0000 C   0  0  0  0  0  4           0  0  0
   -3.8122   -0.0343    2.7951 C   0  0  0  0  0  4           0  0  0
   -6.3385   -0.5640   -0.6210 C   0  0  0  0  0  4           0  0  0
   -4.2076    0.0151    0.5349 C   0  0  0  0  0  4           0  0  0
   -1.9804   -0.0024    1.4364 C   0  0  0  0  0  4           0  0  0
   -8.2884   -1.1743   -1.5132 C   0  0  0  0  0  4           0  0  0
  -11.1824    1.8201   -3.0872 C   0  0  0  0  0  4           0  0  0
   -2.8094    0.0054    0.2974 C   0  0  0  0  0  4           0  0  0
  -12.7723    4.1263   -3.3243 C   0  0  0  0  0  4           0  0  0
   -0.5976    0.0000    1.2656 C   0  0  0  0  0  4           0  0  0
   -0.8108   -0.0044   -1.1287 C   0  0  0  0  0  4           0  0  0
   -7.1308   -0.4853   -1.7971 C   0  0  0  0  0  4           0  0  0
  -11.3872    2.4198   -4.3371 C   0  0  0  0  0  4           0  0  0
   -2.1991   -0.0022   -0.9808 C   0  0  0  0  0  4           0  0  0
  -12.1774    3.5678   -4.4536 C   0  0  0  0  0  4           0  0  0
  -10.5108   -0.3629   -2.1203 C   0  0  0  0  0  4           0  0  0
    1.9812    0.0000   -1.2887 C   0  0  0  0  0  4           0  0  0
    5.9423    2.4807   -2.1618 C   0  0  0  0  0  4           0  0  0
    6.2410    1.1536   -1.4636 C   0  0  0  0  0  4           0  0  0
    4.2759    0.0000   -2.4251 C   0  0  0  0  0  4           0  0  0
    6.2950   -1.2894   -1.8227 C   0  0  0  0  0  4           0  0  0
   -9.4957   -1.4641   -2.3246 C   0  0  0  0  0  4           0  0  0
    3.4941    0.0000   -1.1110 C   0  0  0  0  0  4           0  0  0
    7.8075   -1.3207   -2.0168 C   0  0  0  0  0  4           0  0  0
  1 13  1  0     0  0
  2 14  1  0     0  0
  3 15  1  0     0  0
  3 31  1  0     0  0
  4 30  2  0     0  0
  5 32  1  0     0  0
  6  7  1  0     0  0
  6 20  1  0     0  0
  7 17  2  0     0  0
  8 16  2  0     0  0
  8 18  1  0     0  0
  9 16  1  0     0  0
  9 19  2  0     0  0
 10 17  1  0     0  0
 10 18  1  0     0  0
 11 21  1  0     0  0
 11 30  1  0     0  0
 12 33  1  0     0  0
 12 34  1  0     0  0
 12 35  1  0     0  0
 13 14  1  0     0  0
 13 21  2  0     0  0
 14 23  2  0     0  0
 15 24  2  0     0  0
 15 25  1  0     0  0
 17 26  1  0     0  0
 18 22  2  0     0  0
 19 22  1  0     0  0
 19 24  1  0     0  0
 20 26  2  0     0  0
 20 36  1  0     0  0
 21 27  1  0     0  0
 22 28  1  0     0  0
 23 29  1  0     0  0
 25 28  2  0     0  0
 27 29  2  0     0  0
 30 36  1  0     0  0
 31 37  1  0     0  0
 32 33  1  0     0  0
 34 37  1  0     0  0
 35 38  1  0     0  0
M  END
> <standard_type>
pIC50

> <# Confs.>
25

> <canonical_smiles>
FC1=C(NC(CC2=CC(NC3=C(C=CC(OCCCN(CCO)CC)=C4)C4=NC=N3)=NN2)=O)C=CC=C1F

> <standard_relation>
=

> <Publication_ID>
nan

> <predicted_activity_value>
7.698970004336019

> <actual_activity_value>
8.1249387366083

> <Compound>
22

> <standard_units>
nM

> hash
400142330712513226

$$$$
22_
XXILIB    08252103423D 0   0.00000     0.00000

 38 41  0     1  0            999 V2000
   -8.0358   -5.2607   -3.5525 F   0  0  0  0  0  1           0  0  0
   -7.4584   -7.1118   -5.4176 F   0  0  0  0  0  1           0  0  0
    1.3663    0.0000   -0.0000 O   0  0  0  0  0  2           0  0  0
   -9.6196   -3.8453   -2.5940 O   0  0  0  0  0  2           0  0  0
    5.8137    1.0630    2.7056 O   0  0  0  0  0  2           0  0  0
   -8.1365   -1.6094   -0.2274 N   0  0  0  0  0  3           0  0  0
   -6.9731   -1.2557    0.3382 N   0  0  0  0  0  3           0  0  0
   -4.7052   -0.0278    1.7957 N   0  0  0  0  0  3           0  0  0
   -2.4763   -0.0168    2.6806 N   0  0  0  0  0  3           0  0  0
   -5.1100    0.0092   -0.5554 N   0  0  0  0  0  3           0  0  0
   -8.7051   -2.5773   -4.3141 N   0  0  0  0  0  3           0  0  0
    5.4912    1.1726   -0.1949 N   0  0  2  0  0  3           0  0  0
   -8.0720   -4.9048   -4.8448 C   0  0  0  0  0  4           0  0  0
   -7.7742   -5.8680   -5.8041 C   0  0  0  0  0  4           0  0  0
    0.0000   -0.0000    0.0000 C   0  0  0  0  0  4           0  0  0
   -3.8122   -0.0343    2.7951 C   0  0  0  0  0  4           0  0  0
   -6.3385   -0.5640   -0.6210 C   0  0  0  0  0  4           0  0  0
   -4.2076    0.0151    0.5349 C   0  0  0  0  0  4           0  0  0
   -1.9804   -0.0024    1.4364 C   0  0  0  0  0  4           0  0  0
   -8.2884   -1.1743   -1.5132 C   0  0  0  0  0  4           0  0  0
   -8.3975   -3.6013   -5.2297 C   0  0  0  0  0  4           0  0  0
   -2.8094    0.0054    0.2974 C   0  0  0  0  0  4           0  0  0
   -7.7973   -5.5563   -7.1584 C   0  0  0  0  0  4           0  0  0
   -0.5976    0.0000    1.2656 C   0  0  0  0  0  4           0  0  0
   -0.8108   -0.0044   -1.1287 C   0  0  0  0  0  4           0  0  0
   -7.1308   -0.4853   -1.7971 C   0  0  0  0  0  4           0  0  0
   -8.4205   -3.2868   -6.5950 C   0  0  0  0  0  4           0  0  0
   -2.1991   -0.0022   -0.9808 C   0  0  0  0  0  4           0  0  0
   -8.1228   -4.2605   -7.5536 C   0  0  0  0  0  4           0  0  0
   -9.2936   -2.7605   -3.0752 C   0  0  0  0  0  4           0  0  0
    1.9812    0.0000   -1.2887 C   0  0  0  0  0  4           0  0  0
    5.4593   -0.0893    1.9519 C   0  0  0  0  0  4           0  0  0
    6.0072    0.0039    0.5274 C   0  0  0  0  0  4           0  0  0
    4.0317    1.2092   -0.3450 C   0  0  0  0  0  4           0  0  0
    6.2445    1.5397   -1.3922 C   0  0  0  0  0  4           0  0  0
   -9.4957   -1.4641   -2.3246 C   0  0  0  0  0  4           0  0  0
    3.4941    0.0000   -1.1110 C   0  0  0  0  0  4           0  0  0
    7.6956    1.8750   -1.0633 C   0  0  0  0  0  4           0  0  0
  1 13  1  0     0  0
  2 14  1  0     0  0
  3 15  1  0     0  0
  3 31  1  0     0  0
  4 30  2  0     0  0
  5 32  1  0     0  0
  6  7  1  0     0  0
  6 20  1  0     0  0
  7 17  2  0     0  0
  8 16  2  0     0  0
  8 18  1  0     0  0
  9 16  1  0     0  0
  9 19  2  0     0  0
 10 17  1  0     0  0
 10 18  1  0     0  0
 11 21  1  0     0  0
 11 30  1  0     0  0
 12 33  1  0     0  0
 12 34  1  0     0  0
 12 35  1  0     0  0
 13 14  1  0     0  0
 13 21  2  0     0  0
 14 23  2  0     0  0
 15 24  2  0     0  0
 15 25  1  0     0  0
 17 26  1  0     0  0
 18 22  2  0     0  0
 19 22  1  0     0  0
 19 24  1  0     0  0
 20 26  2  0     0  0
 20 36  1  0     0  0
 21 27  1  0     0  0
 22 28  1  0     0  0
 23 29  1  0     0  0
 25 28  2  0     0  0
 27 29  2  0     0  0
 30 36  1  0     0  0
 31 37  1  0     0  0
 32 33  1  0     0  0
 34 37  1  0     0  0
 35 38  1  0     0  0
M  END
> <standard_type>
pIC50

> <# Confs.>
25

> <canonical_smiles>
FC1=C(NC(CC2=CC(NC3=C(C=CC(OCCCN(CCO)CC)=C4)C4=NC=N3)=NN2)=O)C=CC=C1F

> <standard_relation>
=

> <Publication_ID>
nan

> <predicted_activity_value>
7.698970004336019

> <actual_activity_value>
8.1249387366083

> <Compound>
22

> <standard_units>
nM

> hash
400142330712513226

$$$$
22_
XXILIB    08252103423D 0   0.00000     0.00000

 38 41  0     1  0            999 V2000
  -11.6190    1.8585   -0.7409 F   0  0  0  0  0  1           0  0  0
  -13.1420    4.0618   -0.9953 F   0  0  0  0  0  1           0  0  0
    1.3663   -0.0000   -0.0000 O   0  0  0  0  0  2           0  0  0
  -11.3584   -0.4201   -1.2299 O   0  0  0  0  0  2           0  0  0
    6.3221   -3.5800   -1.6243 O   0  0  0  0  0  2           0  0  0
   -8.1365   -1.6094   -0.2274 N   0  0  0  0  0  3           0  0  0
   -6.9731   -1.2557    0.3382 N   0  0  0  0  0  3           0  0  0
   -4.7052   -0.0278    1.7957 N   0  0  0  0  0  3           0  0  0
   -2.4763   -0.0168    2.6806 N   0  0  0  0  0  3           0  0  0
   -5.1100    0.0092   -0.5554 N   0  0  0  0  0  3           0  0  0
  -10.3781    0.6662   -3.0359 N   0  0  0  0  0  3           0  0  0
    5.4912   -1.1726   -0.1949 N   0  0  2  0  0  3           0  0  0
  -11.7821    2.3904   -1.9610 C   0  0  0  0  0  4           0  0  0
  -12.5695    3.5312   -2.0847 C   0  0  0  0  0  4           0  0  0
    0.0000   -0.0000    0.0000 C   0  0  0  0  0  4           0  0  0
   -3.8122   -0.0343    2.7951 C   0  0  0  0  0  4           0  0  0
   -6.3385   -0.5640   -0.6210 C   0  0  0  0  0  4           0  0  0
   -4.2076    0.0151    0.5349 C   0  0  0  0  0  4           0  0  0
   -1.9804   -0.0024    1.4364 C   0  0  0  0  0  4           0  0  0
   -8.2884   -1.1743   -1.5132 C   0  0  0  0  0  4           0  0  0
  -11.1824    1.8201   -3.0872 C   0  0  0  0  0  4           0  0  0
   -2.8094    0.0054    0.2974 C   0  0  0  0  0  4           0  0  0
  -12.7723    4.1263   -3.3243 C   0  0  0  0  0  4           0  0  0
   -0.5976    0.0000    1.2656 C   0  0  0  0  0  4           0  0  0
   -0.8108   -0.0044   -1.1287 C   0  0  0  0  0  4           0  0  0
   -7.1308   -0.4853   -1.7971 C   0  0  0  0  0  4           0  0  0
  -11.3872    2.4198   -4.3371 C   0  0  0  0  0  4           0  0  0
   -2.1991   -0.0022   -0.9808 C   0  0  0  0  0  4           0  0  0
  -12.1774    3.5678   -4.4536 C   0  0  0  0  0  4           0  0  0
  -10.5108   -0.3629   -2.1203 C   0  0  0  0  0  4           0  0  0
    1.9812    0.0000   -1.2887 C   0  0  0  0  0  4           0  0  0
    5.9603   -2.3914   -2.3155 C   0  0  0  0  0  4           0  0  0
    6.2402   -1.1574   -1.4570 C   0  0  0  0  0  4           0  0  0
    4.0317   -1.2092   -0.3450 C   0  0  0  0  0  4           0  0  0
    5.9840   -0.2503    0.8259 C   0  0  0  0  0  4           0  0  0
   -9.4957   -1.4641   -2.3246 C   0  0  0  0  0  4           0  0  0
    3.4941    0.0000   -1.1110 C   0  0  0  0  0  4           0  0  0
    7.4289   -0.5543    1.2086 C   0  0  0  0  0  4           0  0  0
  1 13  1  0     0  0
  2 14  1  0     0  0
  3 15  1  0     0  0
  3 31  1  0     0  0
  4 30  2  0     0  0
  5 32  1  0     0  0
  6  7  1  0     0  0
  6 20  1  0     0  0
  7 17  2  0     0  0
  8 16  2  0     0  0
  8 18  1  0     0  0
  9 16  1  0     0  0
  9 19  2  0     0  0
 10 17  1  0     0  0
 10 18  1  0     0  0
 11 21  1  0     0  0
 11 30  1  0     0  0
 12 33  1  0     0  0
 12 34  1  0     0  0
 12 35  1  0     0  0
 13 14  1  0     0  0
 13 21  2  0     0  0
 14 23  2  0     0  0
 15 24  2  0     0  0
 15 25  1  0     0  0
 17 26  1  0     0  0
 18 22  2  0     0  0
 19 22  1  0     0  0
 19 24  1  0     0  0
 20 26  2  0     0  0
 20 36  1  0     0  0
 21 27  1  0     0  0
 22 28  1  0     0  0
 23 29  1  0     0  0
 25 28  2  0     0  0
 27 29  2  0     0  0
 30 36  1  0     0  0
 31 37  1  0     0  0
 32 33  1  0     0  0
 34 37  1  0     0  0
 35 38  1  0     0  0
M  END
> <standard_type>
pIC50

> <# Confs.>
25

> <canonical_smiles>
FC1=C(NC(CC2=CC(NC3=C(C=CC(OCCCN(CCO)CC)=C4)C4=NC=N3)=NN2)=O)C=CC=C1F

> <standard_relation>
=

> <Publication_ID>
nan

> <predicted_activity_value>
7.698970004336019

> <actual_activity_value>
8.1249387366083

> <Compound>
22

> <standard_units>
nM

> hash
400142330712513226

$$$$
22_
XXILIB    08252103423D 0   0.00000     0.00000

 38 41  0     1  0            999 V2000
   -8.0358   -5.2607   -3.5525 F   0  0  0  0  0  1           0  0  0
   -7.4584   -7.1118   -5.4176 F   0  0  0  0  0  1           0  0  0
    1.3663    0.0000   -0.0000 O   0  0  0  0  0  2           0  0  0
   -9.6196   -3.8453   -2.5940 O   0  0  0  0  0  2           0  0  0
    6.5368    2.5170   -3.4528 O   0  0  0  0  0  2           0  0  0
   -8.1365   -1.6094   -0.2274 N   0  0  0  0  0  3           0  0  0
   -6.9731   -1.2557    0.3382 N   0  0  0  0  0  3           0  0  0
   -4.7052   -0.0278    1.7957 N   0  0  0  0  0  3           0  0  0
   -2.4763   -0.0168    2.6806 N   0  0  0  0  0  3           0  0  0
   -5.1100    0.0092   -0.5554 N   0  0  0  0  0  3           0  0  0
   -8.7051   -2.5773   -4.3141 N   0  0  0  0  0  3           0  0  0
    5.7280    0.0000   -2.2120 N   0  0  2  0  0  3           0  0  0
   -8.0720   -4.9048   -4.8448 C   0  0  0  0  0  4           0  0  0
   -7.7742   -5.8680   -5.8041 C   0  0  0  0  0  4           0  0  0
    0.0000   -0.0000    0.0000 C   0  0  0  0  0  4           0  0  0
   -3.8122   -0.0343    2.7951 C   0  0  0  0  0  4           0  0  0
   -6.3385   -0.5640   -0.6210 C   0  0  0  0  0  4           0  0  0
   -4.2076    0.0151    0.5349 C   0  0  0  0  0  4           0  0  0
   -1.9804   -0.0024    1.4364 C   0  0  0  0  0  4           0  0  0
   -8.2884   -1.1743   -1.5132 C   0  0  0  0  0  4           0  0  0
   -8.3975   -3.6013   -5.2297 C   0  0  0  0  0  4           0  0  0
   -2.8094    0.0054    0.2974 C   0  0  0  0  0  4           0  0  0
   -7.7973   -5.5563   -7.1584 C   0  0  0  0  0  4           0  0  0
   -0.5976    0.0000    1.2656 C   0  0  0  0  0  4           0  0  0
   -0.8108   -0.0044   -1.1287 C   0  0  0  0  0  4           0  0  0
   -7.1308   -0.4853   -1.7971 C   0  0  0  0  0  4           0  0  0
   -8.4205   -3.2868   -6.5950 C   0  0  0  0  0  4           0  0  0
   -2.1991   -0.0022   -0.9808 C   0  0  0  0  0  4           0  0  0
   -8.1228   -4.2605   -7.5536 C   0  0  0  0  0  4           0  0  0
   -9.2936   -2.7605   -3.0752 C   0  0  0  0  0  4           0  0  0
    1.9812    0.0000   -1.2887 C   0  0  0  0  0  4           0  0  0
    5.9423    2.4807   -2.1618 C   0  0  0  0  0  4           0  0  0
    6.2410    1.1536   -1.4636 C   0  0  0  0  0  4           0  0  0
    4.2759    0.0000   -2.4251 C   0  0  0  0  0  4           0  0  0
    6.2950   -1.2894   -1.8227 C   0  0  0  0  0  4           0  0  0
   -9.4957   -1.4641   -2.3246 C   0  0  0  0  0  4           0  0  0
    3.4941    0.0000   -1.1110 C   0  0  0  0  0  4           0  0  0
    7.8075   -1.3207   -2.0168 C   0  0  0  0  0  4           0  0  0
  1 13  1  0     0  0
  2 14  1  0     0  0
  3 15  1  0     0  0
  3 31  1  0     0  0
  4 30  2  0     0  0
  5 32  1  0     0  0
  6  7  1  0     0  0
  6 20  1  0     0  0
  7 17  2  0     0  0
  8 16  2  0     0  0
  8 18  1  0     0  0
  9 16  1  0     0  0
  9 19  2  0     0  0
 10 17  1  0     0  0
 10 18  1  0     0  0
 11 21  1  0     0  0
 11 30  1  0     0  0
 12 33  1  0     0  0
 12 34  1  0     0  0
 12 35  1  0     0  0
 13 14  1  0     0  0
 13 21  2  0     0  0
 14 23  2  0     0  0
 15 24  2  0     0  0
 15 25  1  0     0  0
 17 26  1  0     0  0
 18 22  2  0     0  0
 19 22  1  0     0  0
 19 24  1  0     0  0
 20 26  2  0     0  0
 20 36  1  0     0  0
 21 27  1  0     0  0
 22 28  1  0     0  0
 23 29  1  0     0  0
 25 28  2  0     0  0
 27 29  2  0     0  0
 30 36  1  0     0  0
 31 37  1  0     0  0
 32 33  1  0     0  0
 34 37  1  0     0  0
 35 38  1  0     0  0
M  END
> <standard_type>
pIC50

> <# Confs.>
25

> <canonical_smiles>
FC1=C(NC(CC2=CC(NC3=C(C=CC(OCCCN(CCO)CC)=C4)C4=NC=N3)=NN2)=O)C=CC=C1F

> <standard_relation>
=

> <Publication_ID>
nan

> <predicted_activity_value>
7.698970004336019

> <actual_activity_value>
8.1249387366083

> <Compound>
22

> <standard_units>
nM

> hash
400142330712513226

$$$$
22_
XXILIB    08252103423D 0   0.00000     0.00000

 38 41  0     1  0            999 V2000
   -8.0358   -5.2607   -3.5525 F   0  0  0  0  0  1           0  0  0
   -7.4584   -7.1118   -5.4176 F   0  0  0  0  0  1           0  0  0
    1.3663   -0.0000   -0.0000 O   0  0  0  0  0  2           0  0  0
   -9.6196   -3.8453   -2.5940 O   0  0  0  0  0  2           0  0  0
    6.3221   -3.5800   -1.6243 O   0  0  0  0  0  2           0  0  0
   -8.1365   -1.6094   -0.2274 N   0  0  0  0  0  3           0  0  0
   -6.9731   -1.2557    0.3382 N   0  0  0  0  0  3           0  0  0
   -4.7052   -0.0278    1.7957 N   0  0  0  0  0  3           0  0  0
   -2.4763   -0.0168    2.6806 N   0  0  0  0  0  3           0  0  0
   -5.1100    0.0092   -0.5554 N   0  0  0  0  0  3           0  0  0
   -8.7051   -2.5773   -4.3141 N   0  0  0  0  0  3           0  0  0
    5.4912   -1.1726   -0.1949 N   0  0  2  0  0  3           0  0  0
   -8.0720   -4.9048   -4.8448 C   0  0  0  0  0  4           0  0  0
   -7.7742   -5.8680   -5.8041 C   0  0  0  0  0  4           0  0  0
    0.0000   -0.0000    0.0000 C   0  0  0  0  0  4           0  0  0
   -3.8122   -0.0343    2.7951 C   0  0  0  0  0  4           0  0  0
   -6.3385   -0.5640   -0.6210 C   0  0  0  0  0  4           0  0  0
   -4.2076    0.0151    0.5349 C   0  0  0  0  0  4           0  0  0
   -1.9804   -0.0024    1.4364 C   0  0  0  0  0  4           0  0  0
   -8.2884   -1.1743   -1.5132 C   0  0  0  0  0  4           0  0  0
   -8.3975   -3.6013   -5.2297 C   0  0  0  0  0  4           0  0  0
   -2.8094    0.0054    0.2974 C   0  0  0  0  0  4           0  0  0
   -7.7973   -5.5563   -7.1584 C   0  0  0  0  0  4           0  0  0
   -0.5976    0.0000    1.2656 C   0  0  0  0  0  4           0  0  0
   -0.8108   -0.0044   -1.1287 C   0  0  0  0  0  4           0  0  0
   -7.1308   -0.4853   -1.7971 C   0  0  0  0  0  4           0  0  0
   -8.4205   -3.2868   -6.5950 C   0  0  0  0  0  4           0  0  0
   -2.1991   -0.0022   -0.9808 C   0  0  0  0  0  4           0  0  0
   -8.1228   -4.2605   -7.5536 C   0  0  0  0  0  4           0  0  0
   -9.2936   -2.7605   -3.0752 C   0  0  0  0  0  4           0  0  0
    1.9812    0.0000   -1.2887 C   0  0  0  0  0  4           0  0  0
    5.9603   -2.3914   -2.3155 C   0  0  0  0  0  4           0  0  0
    6.2402   -1.1574   -1.4570 C   0  0  0  0  0  4           0  0  0
    4.0317   -1.2092   -0.3450 C   0  0  0  0  0  4           0  0  0
    5.9840   -0.2503    0.8259 C   0  0  0  0  0  4           0  0  0
   -9.4957   -1.4641   -2.3246 C   0  0  0  0  0  4           0  0  0
    3.4941    0.0000   -1.1110 C   0  0  0  0  0  4           0  0  0
    7.4289   -0.5543    1.2086 C   0  0  0  0  0  4           0  0  0
  1 13  1  0     0  0
  2 14  1  0     0  0
  3 15  1  0     0  0
  3 31  1  0     0  0
  4 30  2  0     0  0
  5 32  1  0     0  0
  6  7  1  0     0  0
  6 20  1  0     0  0
  7 17  2  0     0  0
  8 16  2  0     0  0
  8 18  1  0     0  0
  9 16  1  0     0  0
  9 19  2  0     0  0
 10 17  1  0     0  0
 10 18  1  0     0  0
 11 21  1  0     0  0
 11 30  1  0     0  0
 12 33  1  0     0  0
 12 34  1  0     0  0
 12 35  1  0     0  0
 13 14  1  0     0  0
 13 21  2  0     0  0
 14 23  2  0     0  0
 15 24  2  0     0  0
 15 25  1  0     0  0
 17 26  1  0     0  0
 18 22  2  0     0  0
 19 22  1  0     0  0
 19 24  1  0     0  0
 20 26  2  0     0  0
 20 36  1  0     0  0
 21 27  1  0     0  0
 22 28  1  0     0  0
 23 29  1  0     0  0
 25 28  2  0     0  0
 27 29  2  0     0  0
 30 36  1  0     0  0
 31 37  1  0     0  0
 32 33  1  0     0  0
 34 37  1  0     0  0
 35 38  1  0     0  0
M  END
> <standard_type>
pIC50

> <# Confs.>
25

> <canonical_smiles>
FC1=C(NC(CC2=CC(NC3=C(C=CC(OCCCN(CCO)CC)=C4)C4=NC=N3)=NN2)=O)C=CC=C1F

> <standard_relation>
=

> <Publication_ID>
nan

> <predicted_activity_value>
7.698970004336019

> <actual_activity_value>
8.1249387366083

> <Compound>
22

> <standard_units>
nM

> hash
400142330712513226

$$$$
22_
XXILIB    08252103423D 0   0.00000     0.00000

 38 41  0     1  0            999 V2000
  -11.4156   -2.3374   -0.7712 F   0  0  0  0  0  1           0  0  0
  -12.6984   -4.6803   -1.0942 F   0  0  0  0  0  1           0  0  0
    1.3663    0.0000   -0.0000 O   0  0  0  0  0  2           0  0  0
  -11.3513   -0.0444   -1.1815 O   0  0  0  0  0  2           0  0  0
    5.8137    1.0630    2.7056 O   0  0  0  0  0  2           0  0  0
   -8.2411    1.3967   -0.1573 N   0  0  0  0  0  3           0  0  0
   -7.0496    1.1121    0.3886 N   0  0  0  0  0  3           0  0  0
   -4.7052   -0.0278    1.7957 N   0  0  0  0  0  3           0  0  0
   -2.4763   -0.0168    2.6806 N   0  0  0  0  0  3           0  0  0
   -5.1100    0.0092   -0.5554 N   0  0  0  0  0  3           0  0  0
  -10.2768   -0.9718   -3.0222 N   0  0  0  0  0  3           0  0  0
    5.4912    1.1726   -0.1949 N   0  0  2  0  0  3           0  0  0
  -11.5159   -2.8510   -2.0058 C   0  0  0  0  0  4           0  0  0
  -12.1825   -4.0621   -2.1656 C   0  0  0  0  0  4           0  0  0
   -0.0000    0.0000    0.0000 C   0  0  0  0  0  4           0  0  0
   -3.8122   -0.0343    2.7951 C   0  0  0  0  0  4           0  0  0
   -6.3730    0.5042   -0.5983 C   0  0  0  0  0  4           0  0  0
   -4.2076    0.0151    0.5349 C   0  0  0  0  0  4           0  0  0
   -1.9804   -0.0024    1.4364 C   0  0  0  0  0  4           0  0  0
   -8.3681    1.0033   -1.4591 C   0  0  0  0  0  4           0  0  0
  -10.9665   -2.1956   -3.1112 C   0  0  0  0  0  4           0  0  0
   -2.8094    0.0054    0.2974 C   0  0  0  0  0  4           0  0  0
  -12.3180   -4.6408   -3.4220 C   0  0  0  0  0  4           0  0  0
   -0.5976    0.0000    1.2656 C   0  0  0  0  0  4           0  0  0
   -0.8108   -0.0044   -1.1287 C   0  0  0  0  0  4           0  0  0
   -7.1621    0.4199   -1.7761 C   0  0  0  0  0  4           0  0  0
  -11.1027   -2.7792   -4.3779 C   0  0  0  0  0  4           0  0  0
   -2.1991   -0.0022   -0.9808 C   0  0  0  0  0  4           0  0  0
  -11.7763   -3.9951   -4.5314 C   0  0  0  0  0  4           0  0  0
  -10.5133    0.0145   -2.0809 C   0  0  0  0  0  4           0  0  0
    1.9812    0.0000   -1.2887 C   0  0  0  0  0  4           0  0  0
    5.4593   -0.0893    1.9519 C   0  0  0  0  0  4           0  0  0
    6.0072    0.0039    0.5274 C   0  0  0  0  0  4           0  0  0
    4.0317    1.2092   -0.3450 C   0  0  0  0  0  4           0  0  0
    6.2445    1.5397   -1.3922 C   0  0  0  0  0  4           0  0  0
   -9.6072    1.2130   -2.2469 C   0  0  0  0  0  4           0  0  0
    3.4941    0.0000   -1.1110 C   0  0  0  0  0  4           0  0  0
    7.6956    1.8750   -1.0633 C   0  0  0  0  0  4           0  0  0
  1 13  1  0     0  0
  2 14  1  0     0  0
  3 15  1  0     0  0
  3 31  1  0     0  0
  4 30  2  0     0  0
  5 32  1  0     0  0
  6  7  1  0     0  0
  6 20  1  0     0  0
  7 17  2  0     0  0
  8 16  2  0     0  0
  8 18  1  0     0  0
  9 16  1  0     0  0
  9 19  2  0     0  0
 10 17  1  0     0  0
 10 18  1  0     0  0
 11 21  1  0     0  0
 11 30  1  0     0  0
 12 33  1  0     0  0
 12 34  1  0     0  0
 12 35  1  0     0  0
 13 14  1  0     0  0
 13 21  2  0     0  0
 14 23  2  0     0  0
 15 24  2  0     0  0
 15 25  1  0     0  0
 17 26  1  0     0  0
 18 22  2  0     0  0
 19 22  1  0     0  0
 19 24  1  0     0  0
 20 26  2  0     0  0
 20 36  1  0     0  0
 21 27  1  0     0  0
 22 28  1  0     0  0
 23 29  1  0     0  0
 25 28  2  0     0  0
 27 29  2  0     0  0
 30 36  1  0     0  0
 31 37  1  0     0  0
 32 33  1  0     0  0
 34 37  1  0     0  0
 35 38  1  0     0  0
M  END
> <standard_type>
pIC50

> <# Confs.>
25

> <canonical_smiles>
FC1=C(NC(CC2=CC(NC3=C(C=CC(OCCCN(CCO)CC)=C4)C4=NC=N3)=NN2)=O)C=CC=C1F

> <standard_relation>
=

> <Publication_ID>
nan

> <predicted_activity_value>
7.698970004336019

> <actual_activity_value>
8.1249387366083

> <Compound>
22

> <standard_units>
nM

> hash
400142330712513226

$$$$
22_
XXILIB    08252103423D 0   0.00000     0.00000

 38 41  0     1  0            999 V2000
  -11.4156   -2.3374   -0.7712 F   0  0  0  0  0  1           0  0  0
  -12.6984   -4.6803   -1.0942 F   0  0  0  0  0  1           0  0  0
    1.3663    0.0000   -0.0000 O   0  0  0  0  0  2           0  0  0
  -11.3513   -0.0444   -1.1815 O   0  0  0  0  0  2           0  0  0
    6.5368    2.5170   -3.4528 O   0  0  0  0  0  2           0  0  0
   -8.2411    1.3967   -0.1573 N   0  0  0  0  0  3           0  0  0
   -7.0496    1.1121    0.3886 N   0  0  0  0  0  3           0  0  0
   -4.7052   -0.0278    1.7957 N   0  0  0  0  0  3           0  0  0
   -2.4763   -0.0168    2.6806 N   0  0  0  0  0  3           0  0  0
   -5.1100    0.0092   -0.5554 N   0  0  0  0  0  3           0  0  0
  -10.2768   -0.9718   -3.0222 N   0  0  0  0  0  3           0  0  0
    5.7280    0.0000   -2.2120 N   0  0  2  0  0  3           0  0  0
  -11.5159   -2.8510   -2.0058 C   0  0  0  0  0  4           0  0  0
  -12.1825   -4.0621   -2.1656 C   0  0  0  0  0  4           0  0  0
   -0.0000    0.0000    0.0000 C   0  0  0  0  0  4           0  0  0
   -3.8122   -0.0343    2.7951 C   0  0  0  0  0  4           0  0  0
   -6.3730    0.5042   -0.5983 C   0  0  0  0  0  4           0  0  0
   -4.2076    0.0151    0.5349 C   0  0  0  0  0  4           0  0  0
   -1.9804   -0.0024    1.4364 C   0  0  0  0  0  4           0  0  0
   -8.3681    1.0033   -1.4591 C   0  0  0  0  0  4           0  0  0
  -10.9665   -2.1956   -3.1112 C   0  0  0  0  0  4           0  0  0
   -2.8094    0.0054    0.2974 C   0  0  0  0  0  4           0  0  0
  -12.3180   -4.6408   -3.4220 C   0  0  0  0  0  4           0  0  0
   -0.5976    0.0000    1.2656 C   0  0  0  0  0  4           0  0  0
   -0.8108   -0.0044   -1.1287 C   0  0  0  0  0  4           0  0  0
   -7.1621    0.4199   -1.7761 C   0  0  0  0  0  4           0  0  0
  -11.1027   -2.7792   -4.3779 C   0  0  0  0  0  4           0  0  0
   -2.1991   -0.0022   -0.9808 C   0  0  0  0  0  4           0  0  0
  -11.7763   -3.9951   -4.5314 C   0  0  0  0  0  4           0  0  0
  -10.5133    0.0145   -2.0809 C   0  0  0  0  0  4           0  0  0
    1.9812    0.0000   -1.2887 C   0  0  0  0  0  4           0  0  0
    5.9423    2.4807   -2.1618 C   0  0  0  0  0  4           0  0  0
    6.2410    1.1536   -1.4636 C   0  0  0  0  0  4           0  0  0
    4.2759    0.0000   -2.4251 C   0  0  0  0  0  4           0  0  0
    6.2950   -1.2894   -1.8227 C   0  0  0  0  0  4           0  0  0
   -9.6072    1.2130   -2.2469 C   0  0  0  0  0  4           0  0  0
    3.4941    0.0000   -1.1110 C   0  0  0  0  0  4           0  0  0
    7.8075   -1.3207   -2.0168 C   0  0  0  0  0  4           0  0  0
  1 13  1  0     0  0
  2 14  1  0     0  0
  3 15  1  0     0  0
  3 31  1  0     0  0
  4 30  2  0     0  0
  5 32  1  0     0  0
  6  7  1  0     0  0
  6 20  1  0     0  0
  7 17  2  0     0  0
  8 16  2  0     0  0
  8 18  1  0     0  0
  9 16  1  0     0  0
  9 19  2  0     0  0
 10 17  1  0     0  0
 10 18  1  0     0  0
 11 21  1  0     0  0
 11 30  1  0     0  0
 12 33  1  0     0  0
 12 34  1  0     0  0
 12 35  1  0     0  0
 13 14  1  0     0  0
 13 21  2  0     0  0
 14 23  2  0     0  0
 15 24  2  0     0  0
 15 25  1  0     0  0
 17 26  1  0     0  0
 18 22  2  0     0  0
 19 22  1  0     0  0
 19 24  1  0     0  0
 20 26  2  0     0  0
 20 36  1  0     0  0
 21 27  1  0     0  0
 22 28  1  0     0  0
 23 29  1  0     0  0
 25 28  2  0     0  0
 27 29  2  0     0  0
 30 36  1  0     0  0
 31 37  1  0     0  0
 32 33  1  0     0  0
 34 37  1  0     0  0
 35 38  1  0     0  0
M  END
> <standard_type>
pIC50

> <# Confs.>
25

> <canonical_smiles>
FC1=C(NC(CC2=CC(NC3=C(C=CC(OCCCN(CCO)CC)=C4)C4=NC=N3)=NN2)=O)C=CC=C1F

> <standard_relation>
=

> <Publication_ID>
nan

> <predicted_activity_value>
7.698970004336019

> <actual_activity_value>
8.1249387366083

> <Compound>
22

> <standard_units>
nM

> hash
400142330712513226

$$$$
22_
XXILIB    08252103423D 0   0.00000     0.00000

 38 41  0     1  0            999 V2000
  -11.4156   -2.3374   -0.7712 F   0  0  0  0  0  1           0  0  0
  -12.6984   -4.6803   -1.0942 F   0  0  0  0  0  1           0  0  0
    1.3663   -0.0000   -0.0000 O   0  0  0  0  0  2           0  0  0
  -11.3513   -0.0444   -1.1815 O   0  0  0  0  0  2           0  0  0
    6.3221   -3.5800   -1.6243 O   0  0  0  0  0  2           0  0  0
   -8.2411    1.3967   -0.1573 N   0  0  0  0  0  3           0  0  0
   -7.0496    1.1121    0.3886 N   0  0  0  0  0  3           0  0  0
   -4.7052   -0.0278    1.7957 N   0  0  0  0  0  3           0  0  0
   -2.4763   -0.0168    2.6806 N   0  0  0  0  0  3           0  0  0
   -5.1100    0.0092   -0.5554 N   0  0  0  0  0  3           0  0  0
  -10.2768   -0.9718   -3.0222 N   0  0  0  0  0  3           0  0  0
    5.4912   -1.1726   -0.1949 N   0  0  2  0  0  3           0  0  0
  -11.5159   -2.8510   -2.0058 C   0  0  0  0  0  4           0  0  0
  -12.1825   -4.0621   -2.1656 C   0  0  0  0  0  4           0  0  0
   -0.0000    0.0000    0.0000 C   0  0  0  0  0  4           0  0  0
   -3.8122   -0.0343    2.7951 C   0  0  0  0  0  4           0  0  0
   -6.3730    0.5042   -0.5983 C   0  0  0  0  0  4           0  0  0
   -4.2076    0.0151    0.5349 C   0  0  0  0  0  4           0  0  0
   -1.9804   -0.0024    1.4364 C   0  0  0  0  0  4           0  0  0
   -8.3681    1.0033   -1.4591 C   0  0  0  0  0  4           0  0  0
  -10.9665   -2.1956   -3.1112 C   0  0  0  0  0  4           0  0  0
   -2.8094    0.0054    0.2974 C   0  0  0  0  0  4           0  0  0
  -12.3180   -4.6408   -3.4220 C   0  0  0  0  0  4           0  0  0
   -0.5976    0.0000    1.2656 C   0  0  0  0  0  4           0  0  0
   -0.8108   -0.0044   -1.1287 C   0  0  0  0  0  4           0  0  0
   -7.1621    0.4199   -1.7761 C   0  0  0  0  0  4           0  0  0
  -11.1027   -2.7792   -4.3779 C   0  0  0  0  0  4           0  0  0
   -2.1991   -0.0022   -0.9808 C   0  0  0  0  0  4           0  0  0
  -11.7763   -3.9951   -4.5314 C   0  0  0  0  0  4           0  0  0
  -10.5133    0.0145   -2.0809 C   0  0  0  0  0  4           0  0  0
    1.9812    0.0000   -1.2887 C   0  0  0  0  0  4           0  0  0
    5.9603   -2.3914   -2.3155 C   0  0  0  0  0  4           0  0  0
    6.2402   -1.1574   -1.4570 C   0  0  0  0  0  4           0  0  0
    4.0317   -1.2092   -0.3450 C   0  0  0  0  0  4           0  0  0
    5.9840   -0.2503    0.8259 C   0  0  0  0  0  4           0  0  0
   -9.6072    1.2130   -2.2469 C   0  0  0  0  0  4           0  0  0
    3.4941    0.0000   -1.1110 C   0  0  0  0  0  4           0  0  0
    7.4289   -0.5543    1.2086 C   0  0  0  0  0  4           0  0  0
  1 13  1  0     0  0
  2 14  1  0     0  0
  3 15  1  0     0  0
  3 31  1  0     0  0
  4 30  2  0     0  0
  5 32  1  0     0  0
  6  7  1  0     0  0
  6 20  1  0     0  0
  7 17  2  0     0  0
  8 16  2  0     0  0
  8 18  1  0     0  0
  9 16  1  0     0  0
  9 19  2  0     0  0
 10 17  1  0     0  0
 10 18  1  0     0  0
 11 21  1  0     0  0
 11 30  1  0     0  0
 12 33  1  0     0  0
 12 34  1  0     0  0
 12 35  1  0     0  0
 13 14  1  0     0  0
 13 21  2  0     0  0
 14 23  2  0     0  0
 15 24  2  0     0  0
 15 25  1  0     0  0
 17 26  1  0     0  0
 18 22  2  0     0  0
 19 22  1  0     0  0
 19 24  1  0     0  0
 20 26  2  0     0  0
 20 36  1  0     0  0
 21 27  1  0     0  0
 22 28  1  0     0  0
 23 29  1  0     0  0
 25 28  2  0     0  0
 27 29  2  0     0  0
 30 36  1  0     0  0
 31 37  1  0     0  0
 32 33  1  0     0  0
 34 37  1  0     0  0
 35 38  1  0     0  0
M  END
> <standard_type>
pIC50

> <# Confs.>
25

> <canonical_smiles>
FC1=C(NC(CC2=CC(NC3=C(C=CC(OCCCN(CCO)CC)=C4)C4=NC=N3)=NN2)=O)C=CC=C1F

> <standard_relation>
=

> <Publication_ID>
nan

> <predicted_activity_value>
7.698970004336019

> <actual_activity_value>
8.1249387366083

> <Compound>
22

> <standard_units>
nM

> hash
400142330712513226

$$$$
22_
XXILIB    08252103423D 0   0.00000     0.00000

 38 41  0     1  0            999 V2000
   -8.4961    5.1650   -3.3435 F   0  0  0  0  0  1           0  0  0
   -8.1557    7.1399   -5.1387 F   0  0  0  0  0  1           0  0  0
    1.3663    0.0000    0.0000 O   0  0  0  0  0  2           0  0  0
   -9.9543    3.5814   -2.4137 O   0  0  0  0  0  2           0  0  0
    4.7078    1.9509    3.6412 O   0  0  0  0  0  2           0  0  0
   -8.2411    1.3967   -0.1573 N   0  0  0  0  0  3           0  0  0
   -7.0496    1.1121    0.3886 N   0  0  0  0  0  3           0  0  0
   -4.7052   -0.0278    1.7957 N   0  0  0  0  0  3           0  0  0
   -2.4763   -0.0168    2.6806 N   0  0  0  0  0  3           0  0  0
   -5.1100    0.0092   -0.5554 N   0  0  0  0  0  3           0  0  0
   -8.9757    2.4717   -4.2063 N   0  0  0  0  0  3           0  0  0
    4.5220    2.7838    0.8482 N   0  0  2  0  0  3           0  0  0
   -8.5504    4.8640   -4.6490 C   0  0  0  0  0  4           0  0  0
   -8.3714    5.8901   -5.5719 C   0  0  0  0  0  4           0  0  0
   -0.0000    0.0000    0.0000 C   0  0  0  0  0  4           0  0  0
   -3.8122   -0.0343    2.7951 C   0  0  0  0  0  4           0  0  0
   -6.3730    0.5042   -0.5983 C   0  0  0  0  0  4           0  0  0
   -4.2076    0.0151    0.5349 C   0  0  0  0  0  4           0  0  0
   -1.9804   -0.0024    1.4364 C   0  0  0  0  0  4           0  0  0
   -8.3681    1.0033   -1.4591 C   0  0  0  0  0  4           0  0  0
   -8.7823    3.5558   -5.0830 C   0  0  0  0  0  4           0  0  0
   -2.8094    0.0054    0.2974 C   0  0  0  0  0  4           0  0  0
   -8.4161    5.6363   -6.9377 C   0  0  0  0  0  4           0  0  0
   -0.5976    0.0000    1.2656 C   0  0  0  0  0  4           0  0  0
   -0.8108   -0.0044   -1.1287 C   0  0  0  0  0  4           0  0  0
   -7.1621    0.4199   -1.7761 C   0  0  0  0  0  4           0  0  0
   -8.8278    3.2999   -6.4600 C   0  0  0  0  0  4           0  0  0
   -2.1991   -0.0022   -0.9808 C   0  0  0  0  0  4           0  0  0
   -8.6444    4.3355   -7.3817 C   0  0  0  0  0  4           0  0  0
   -9.5354    2.5526   -2.9434 C   0  0  0  0  0  4           0  0  0
    1.9812    0.6443   -1.1160 C   0  0  0  0  0  4           0  0  0
    4.9513    1.0418    2.5755 C   0  0  0  0  0  4           0  0  0
    5.4715    1.7790    1.3410 C   0  0  0  0  0  4           0  0  0
    3.2131    2.2520    0.4509 C   0  0  0  0  0  4           0  0  0
    5.0898    3.7731   -0.0653 C   0  0  0  0  0  4           0  0  0
   -9.6072    1.2130   -2.2469 C   0  0  0  0  0  4           0  0  0
    3.3198    1.2215   -0.6737 C   0  0  0  0  0  4           0  0  0
    6.2141    4.5666    0.5925 C   0  0  0  0  0  4           0  0  0
  1 13  1  0     0  0
  2 14  1  0     0  0
  3 15  1  0     0  0
  3 31  1  0     0  0
  4 30  2  0     0  0
  5 32  1  0     0  0
  6  7  1  0     0  0
  6 20  1  0     0  0
  7 17  2  0     0  0
  8 16  2  0     0  0
  8 18  1  0     0  0
  9 16  1  0     0  0
  9 19  2  0     0  0
 10 17  1  0     0  0
 10 18  1  0     0  0
 11 21  1  0     0  0
 11 30  1  0     0  0
 12 33  1  0     0  0
 12 34  1  0     0  0
 12 35  1  0     0  0
 13 14  1  0     0  0
 13 21  2  0     0  0
 14 23  2  0     0  0
 15 24  2  0     0  0
 15 25  1  0     0  0
 17 26  1  0     0  0
 18 22  2  0     0  0
 19 22  1  0     0  0
 19 24  1  0     0  0
 20 26  2  0     0  0
 20 36  1  0     0  0
 21 27  1  0     0  0
 22 28  1  0     0  0
 23 29  1  0     0  0
 25 28  2  0     0  0
 27 29  2  0     0  0
 30 36  1  0     0  0
 31 37  1  0     0  0
 32 33  1  0     0  0
 34 37  1  0     0  0
 35 38  1  0     0  0
M  END
> <standard_type>
pIC50

> <# Confs.>
25

> <canonical_smiles>
FC1=C(NC(CC2=CC(NC3=C(C=CC(OCCCN(CCO)CC)=C4)C4=NC=N3)=NN2)=O)C=CC=C1F

> <standard_relation>
=

> <Publication_ID>
nan

> <predicted_activity_value>
7.698970004336019

> <actual_activity_value>
8.1249387366083

> <Compound>
22

> <standard_units>
nM

> hash
400142330712513226

$$$$
26_
XXILIB    08252103423D 0   0.00000     0.00000

 40 43  0     1  0            999 V2000
   -7.5171    2.1531    6.8399 F   0  0  0  0  0  1           0  0  0
   -7.0516    4.2582    8.4791 F   0  0  0  0  0  1           0  0  0
    1.3664   -0.0000   -0.0000 O   0  0  0  0  0  2           0  0  0
   -0.0425    0.0084    2.3502 O   0  0  0  0  0  2           0  0  0
   -9.9024    3.4553    2.6553 O   0  0  0  0  0  2           0  0  0
    3.0635    3.2003   -4.5067 O   0  0  0  0  0  2           0  0  0
   -8.2473    1.2061    0.4204 N   0  0  0  0  0  3           0  0  0
   -7.0721    0.9211   -0.1600 N   0  0  0  0  0  3           0  0  0
   -4.7514   -0.2139   -1.6049 N   0  0  0  0  0  3           0  0  0
   -2.5604   -0.1961   -2.5756 N   0  0  0  0  0  3           0  0  0
   -5.0709   -0.0971    0.7542 N   0  0  0  0  0  3           0  0  0
   -8.8110    2.4361    4.4365 N   0  0  0  0  0  3           0  0  0
    2.3882    2.9040   -1.7223 N   0  0  1  0  0  3           0  0  0
   -7.9320    3.3751    6.4739 C   0  0  0  0  0  4           0  0  0
   -7.6921    4.4529    7.3181 C   0  0  0  0  0  4           0  0  0
    0.0000    0.0000    0.0000 C   0  0  0  0  0  4           0  0  0
   -0.7456    0.0000    1.1788 C   0  0  0  0  0  4           0  0  0
   -3.8984   -0.2438   -2.6375 C   0  0  0  0  0  4           0  0  0
   -6.3460    0.3682    0.8240 C   0  0  0  0  0  4           0  0  0
   -4.2071   -0.1104   -0.3668 C   0  0  0  0  0  4           0  0  0
   -2.0188   -0.1185   -1.3532 C   0  0  0  0  0  4           0  0  0
   -8.3173    0.8627    1.7406 C   0  0  0  0  0  4           0  0  0
   -8.5929    3.5583    5.2581 C   0  0  0  0  0  4           0  0  0
   -2.8001   -0.0801   -0.1806 C   0  0  0  0  0  4           0  0  0
   -8.1094    5.7316    6.9680 C   0  0  0  0  0  4           0  0  0
   -0.6342   -0.0814   -1.2422 C   0  0  0  0  0  4           0  0  0
   -2.1409   -0.0300    1.0794 C   0  0  0  0  0  4           0  0  0
   -7.0903    0.3115    2.0327 C   0  0  0  0  0  4           0  0  0
   -9.0121    4.8458    4.9008 C   0  0  0  0  0  4           0  0  0
   -8.7706    5.9267    5.7561 C   0  0  0  0  0  4           0  0  0
   -9.4481    2.4542    3.2082 C   0  0  0  0  0  4           0  0  0
    1.9821    1.1159    0.6443 C   0  0  0  0  0  4           0  0  0
    1.8659    3.7469   -3.9677 C   0  0  0  0  0  4           0  0  0
   -0.8327    0.0082    3.5369 C   0  0  0  0  0  4           0  0  0
    2.8030    4.1706   -1.1223 C   0  0  0  0  0  4           0  0  0
    1.3921    2.9255   -2.7757 C   0  0  0  0  0  4           0  0  0
    3.2068    1.7278   -1.5072 C   0  0  0  0  0  4           0  0  0
   -9.5277    1.0869    2.5681 C   0  0  0  0  0  4           0  0  0
    3.1422    5.2098   -0.6265 C   0  0  0  0  0  4           0  0  0
    3.3216    1.3980   -0.0245 C   0  0  0  0  0  4           0  0  0
  1 14  1  0     0  0
  2 15  1  0     0  0
  3 16  1  0     0  0
  3 32  1  0     0  0
  4 17  1  0     0  0
  4 34  1  0     0  0
  5 31  2  0     0  0
  6 33  1  0     0  0
  7  8  1  0     0  0
  7 22  1  0     0  0
  8 19  2  0     0  0
  9 18  2  0     0  0
  9 20  1  0     0  0
 10 18  1  0     0  0
 10 21  2  0     0  0
 11 19  1  0     0  0
 11 20  1  0     0  0
 12 23  1  0     0  0
 12 31  1  0     0  0
 13 35  1  0     0  0
 13 36  1  0     0  0
 13 37  1  0     0  0
 14 15  1  0     0  0
 14 23  2  0     0  0
 15 25  2  0     0  0
 16 17  1  0     0  0
 16 26  2  0     0  0
 17 27  2  0     0  0
 19 28  1  0     0  0
 20 24  2  0     0  0
 21 24  1  0     0  0
 21 26  1  0     0  0
 22 28  2  0     0  0
 22 38  1  0     0  0
 23 29  1  0     0  0
 24 27  1  0     0  0
 25 30  1  0     0  0
 29 30  2  0     0  0
 31 38  1  0     0  0
 32 40  1  0     0  0
 33 36  1  0     0  0
 35 39  3  0     0  0
 37 40  1  0     0  0
M  END
> <standard_type>
pIC50

> <# Confs.>
25

> <canonical_smiles>
FC1=CC=CC(NC(CC2=CC(NC3=C(C=C(OC)C(OCCCN(CCO)C#C)=C4)C4=NC=N3)=NN2)=O)=C1F

> <standard_relation>
=

> <Publication_ID>
nan

> <predicted_activity_value>
7.853871964321762

> <actual_activity_value>
7.823908740944319

> <Compound>
26

> <standard_units>
nM

> hash
388421990724528612

$$$$
26_
XXILIB    08252103423D 0   0.00000     0.00000

 40 43  0     1  0            999 V2000
   -9.4462   -2.7529    5.5136 F   0  0  0  0  0  1           0  0  0
  -10.6896   -5.1258    5.9116 F   0  0  0  0  0  1           0  0  0
    1.3664   -0.0000   -0.0000 O   0  0  0  0  0  2           0  0  0
   -0.0425    0.0084    2.3502 O   0  0  0  0  0  2           0  0  0
  -11.2925   -0.2347    1.6218 O   0  0  0  0  0  2           0  0  0
    3.0635    3.2003   -4.5067 O   0  0  0  0  0  2           0  0  0
   -8.2473    1.2061    0.4204 N   0  0  0  0  0  3           0  0  0
   -7.0721    0.9211   -0.1600 N   0  0  0  0  0  3           0  0  0
   -4.7514   -0.2139   -1.6049 N   0  0  0  0  0  3           0  0  0
   -2.5604   -0.1961   -2.5756 N   0  0  0  0  0  3           0  0  0
   -5.0709   -0.0971    0.7542 N   0  0  0  0  0  3           0  0  0
  -10.1542   -1.0613    3.4721 N   0  0  0  0  0  3           0  0  0
    2.3882    2.9040   -1.7223 N   0  0  1  0  0  3           0  0  0
  -10.4380   -3.1214    4.6890 C   0  0  0  0  0  4           0  0  0
  -11.0732   -4.3403    4.8958 C   0  0  0  0  0  4           0  0  0
    0.0000    0.0000    0.0000 C   0  0  0  0  0  4           0  0  0
   -0.7456    0.0000    1.1788 C   0  0  0  0  0  4           0  0  0
   -3.8984   -0.2438   -2.6375 C   0  0  0  0  0  4           0  0  0
   -6.3460    0.3682    0.8240 C   0  0  0  0  0  4           0  0  0
   -4.2071   -0.1104   -0.3668 C   0  0  0  0  0  4           0  0  0
   -2.0188   -0.1185   -1.3532 C   0  0  0  0  0  4           0  0  0
   -8.3173    0.8627    1.7406 C   0  0  0  0  0  4           0  0  0
  -10.8266   -2.2868    3.6398 C   0  0  0  0  0  4           0  0  0
   -2.8001   -0.0801   -0.1806 C   0  0  0  0  0  4           0  0  0
  -12.1041   -4.7511    4.0590 C   0  0  0  0  0  4           0  0  0
   -0.6342   -0.0814   -1.2422 C   0  0  0  0  0  4           0  0  0
   -2.1409   -0.0300    1.0794 C   0  0  0  0  0  4           0  0  0
   -7.0903    0.3115    2.0327 C   0  0  0  0  0  4           0  0  0
  -11.8669   -2.6962    2.7966 C   0  0  0  0  0  4           0  0  0
  -12.5008   -3.9258    3.0076 C   0  0  0  0  0  4           0  0  0
  -10.4214   -0.1295    2.4846 C   0  0  0  0  0  4           0  0  0
    1.9821    1.1159    0.6443 C   0  0  0  0  0  4           0  0  0
    1.8659    3.7469   -3.9677 C   0  0  0  0  0  4           0  0  0
   -0.8327    0.0082    3.5369 C   0  0  0  0  0  4           0  0  0
    2.8030    4.1706   -1.1223 C   0  0  0  0  0  4           0  0  0
    1.3921    2.9255   -2.7757 C   0  0  0  0  0  4           0  0  0
    3.2068    1.7278   -1.5072 C   0  0  0  0  0  4           0  0  0
   -9.5277    1.0869    2.5681 C   0  0  0  0  0  4           0  0  0
    3.1422    5.2098   -0.6265 C   0  0  0  0  0  4           0  0  0
    3.3216    1.3980   -0.0245 C   0  0  0  0  0  4           0  0  0
  1 14  1  0     0  0
  2 15  1  0     0  0
  3 16  1  0     0  0
  3 32  1  0     0  0
  4 17  1  0     0  0
  4 34  1  0     0  0
  5 31  2  0     0  0
  6 33  1  0     0  0
  7  8  1  0     0  0
  7 22  1  0     0  0
  8 19  2  0     0  0
  9 18  2  0     0  0
  9 20  1  0     0  0
 10 18  1  0     0  0
 10 21  2  0     0  0
 11 19  1  0     0  0
 11 20  1  0     0  0
 12 23  1  0     0  0
 12 31  1  0     0  0
 13 35  1  0     0  0
 13 36  1  0     0  0
 13 37  1  0     0  0
 14 15  1  0     0  0
 14 23  2  0     0  0
 15 25  2  0     0  0
 16 17  1  0     0  0
 16 26  2  0     0  0
 17 27  2  0     0  0
 19 28  1  0     0  0
 20 24  2  0     0  0
 21 24  1  0     0  0
 21 26  1  0     0  0
 22 28  2  0     0  0
 22 38  1  0     0  0
 23 29  1  0     0  0
 24 27  1  0     0  0
 25 30  1  0     0  0
 29 30  2  0     0  0
 31 38  1  0     0  0
 32 40  1  0     0  0
 33 36  1  0     0  0
 35 39  3  0     0  0
 37 40  1  0     0  0
M  END
> <standard_type>
pIC50

> <# Confs.>
25

> <canonical_smiles>
FC1=CC=CC(NC(CC2=CC(NC3=C(C=C(OC)C(OCCCN(CCO)C#C)=C4)C4=NC=N3)=NN2)=O)=C1F

> <standard_relation>
=

> <Publication_ID>
nan

> <predicted_activity_value>
7.853871964321762

> <actual_activity_value>
7.823908740944319

> <Compound>
26

> <standard_units>
nM

> hash
388421990724528612

$$$$
26_
XXILIB    08252103423D 0   0.00000     0.00000

 40 43  0     1  0            999 V2000
   -7.3559   -1.8803    7.1141 F   0  0  0  0  0  1           0  0  0
   -6.6676   -3.7043    8.9940 F   0  0  0  0  0  1           0  0  0
    1.3664   -0.0000   -0.0000 O   0  0  0  0  0  2           0  0  0
   -0.0425    0.0084    2.3502 O   0  0  0  0  0  2           0  0  0
   -9.4484   -3.9539    3.0870 O   0  0  0  0  0  2           0  0  0
    3.0635    3.2003   -4.5067 O   0  0  0  0  0  2           0  0  0
   -8.0704   -1.7928    0.5923 N   0  0  0  0  0  3           0  0  0
   -6.9321   -1.4415   -0.0240 N   0  0  0  0  0  3           0  0  0
   -4.7514   -0.2139   -1.6049 N   0  0  0  0  0  3           0  0  0
   -2.5604   -0.1961   -2.5756 N   0  0  0  0  0  3           0  0  0
   -5.0709   -0.0971    0.7542 N   0  0  0  0  0  3           0  0  0
   -8.5301   -2.6047    4.7419 N   0  0  0  0  0  3           0  0  0
    2.3882    2.9040   -1.7223 N   0  0  1  0  0  3           0  0  0
   -7.5901   -3.1810    6.8843 C   0  0  0  0  0  4           0  0  0
   -7.2347   -4.1142    7.8511 C   0  0  0  0  0  4           0  0  0
   -0.0000    0.0000    0.0000 C   0  0  0  0  0  4           0  0  0
   -0.7456   -0.0000    1.1788 C   0  0  0  0  0  4           0  0  0
   -3.8984   -0.2438   -2.6375 C   0  0  0  0  0  4           0  0  0
   -6.2828   -0.6982    0.8854 C   0  0  0  0  0  4           0  0  0
   -4.2071   -0.1104   -0.3668 C   0  0  0  0  0  4           0  0  0
   -2.0188   -0.1185   -1.3532 C   0  0  0  0  0  4           0  0  0
   -8.1904   -1.3096    1.8642 C   0  0  0  0  0  4           0  0  0
   -8.1865   -3.5876    5.6896 C   0  0  0  0  0  4           0  0  0
   -2.8001   -0.0801   -0.1806 C   0  0  0  0  0  4           0  0  0
   -7.4638   -5.4693    7.6434 C   0  0  0  0  0  4           0  0  0
   -0.6342   -0.0814   -1.2422 C   0  0  0  0  0  4           0  0  0
   -2.1409   -0.0300    1.0794 C   0  0  0  0  0  4           0  0  0
   -7.0368   -0.5916    2.0846 C   0  0  0  0  0  4           0  0  0
   -8.4216   -4.9518    5.4783 C   0  0  0  0  0  4           0  0  0
   -8.0589   -5.8872    6.4538 C   0  0  0  0  0  4           0  0  0
   -9.1247   -2.8470    3.5161 C   0  0  0  0  0  4           0  0  0
    1.9821    1.1159    0.6443 C   0  0  0  0  0  4           0  0  0
    1.8659    3.7469   -3.9677 C   0  0  0  0  0  4           0  0  0
   -0.8327    0.0082    3.5369 C   0  0  0  0  0  4           0  0  0
    2.8030    4.1706   -1.1223 C   0  0  0  0  0  4           0  0  0
    1.3921    2.9255   -2.7757 C   0  0  0  0  0  4           0  0  0
    3.2068    1.7278   -1.5072 C   0  0  0  0  0  4           0  0  0
   -9.3687   -1.5838    2.7223 C   0  0  0  0  0  4           0  0  0
    3.1422    5.2098   -0.6265 C   0  0  0  0  0  4           0  0  0
    3.3216    1.3980   -0.0245 C   0  0  0  0  0  4           0  0  0
  1 14  1  0     0  0
  2 15  1  0     0  0
  3 16  1  0     0  0
  3 32  1  0     0  0
  4 17  1  0     0  0
  4 34  1  0     0  0
  5 31  2  0     0  0
  6 33  1  0     0  0
  7  8  1  0     0  0
  7 22  1  0     0  0
  8 19  2  0     0  0
  9 18  2  0     0  0
  9 20  1  0     0  0
 10 18  1  0     0  0
 10 21  2  0     0  0
 11 19  1  0     0  0
 11 20  1  0     0  0
 12 23  1  0     0  0
 12 31  1  0     0  0
 13 35  1  0     0  0
 13 36  1  0     0  0
 13 37  1  0     0  0
 14 15  1  0     0  0
 14 23  2  0     0  0
 15 25  2  0     0  0
 16 17  1  0     0  0
 16 26  2  0     0  0
 17 27  2  0     0  0
 19 28  1  0     0  0
 20 24  2  0     0  0
 21 24  1  0     0  0
 21 26  1  0     0  0
 22 28  2  0     0  0
 22 38  1  0     0  0
 23 29  1  0     0  0
 24 27  1  0     0  0
 25 30  1  0     0  0
 29 30  2  0     0  0
 31 38  1  0     0  0
 32 40  1  0     0  0
 33 36  1  0     0  0
 35 39  3  0     0  0
 37 40  1  0     0  0
M  END
> <standard_type>
pIC50

> <# Confs.>
25

> <canonical_smiles>
FC1=CC=CC(NC(CC2=CC(NC3=C(C=C(OC)C(OCCCN(CCO)C#C)=C4)C4=NC=N3)=NN2)=O)=C1F

> <standard_relation>
=

> <Publication_ID>
nan

> <predicted_activity_value>
7.853871964321762

> <actual_activity_value>
7.823908740944319

> <Compound>
26

> <standard_units>
nM

> hash
388421990724528612

$$$$
26_
XXILIB    08252103423D 0   0.00000     0.00000

 40 43  0     1  0            999 V2000
   -9.7211    2.5967    5.1362 F   0  0  0  0  0  1           0  0  0
  -11.2345    4.8399    5.2488 F   0  0  0  0  0  1           0  0  0
    1.3664   -0.0000   -0.0000 O   0  0  0  0  0  2           0  0  0
   -0.0425    0.0084    2.3502 O   0  0  0  0  0  2           0  0  0
  -11.2776   -0.6091    1.6438 O   0  0  0  0  0  2           0  0  0
    3.0635    3.2003   -4.5067 O   0  0  0  0  0  2           0  0  0
   -8.0704   -1.7928    0.5923 N   0  0  0  0  0  3           0  0  0
   -6.9321   -1.4415   -0.0240 N   0  0  0  0  0  3           0  0  0
   -4.7514   -0.2139   -1.6049 N   0  0  0  0  0  3           0  0  0
   -2.5604   -0.1961   -2.5756 N   0  0  0  0  0  3           0  0  0
   -5.0709   -0.0971    0.7542 N   0  0  0  0  0  3           0  0  0
  -10.2426    0.5749    3.3554 N   0  0  0  0  0  3           0  0  0
    2.3882    2.9040   -1.7223 N   0  0  1  0  0  3           0  0  0
  -10.7621    2.7295    4.3007 C   0  0  0  0  0  4           0  0  0
  -11.5371    3.8817    4.3620 C   0  0  0  0  0  4           0  0  0
   -0.0000    0.0000    0.0000 C   0  0  0  0  0  4           0  0  0
   -0.7456   -0.0000    1.1788 C   0  0  0  0  0  4           0  0  0
   -3.8984   -0.2438   -2.6375 C   0  0  0  0  0  4           0  0  0
   -6.2828   -0.6982    0.8854 C   0  0  0  0  0  4           0  0  0
   -4.2071   -0.1104   -0.3668 C   0  0  0  0  0  4           0  0  0
   -2.0188   -0.1185   -1.3532 C   0  0  0  0  0  4           0  0  0
   -8.1904   -1.3096    1.8642 C   0  0  0  0  0  4           0  0  0
  -11.0579    1.7225    3.3804 C   0  0  0  0  0  4           0  0  0
   -2.8001   -0.0801   -0.1806 C   0  0  0  0  0  4           0  0  0
  -12.6225    4.0497    3.5103 C   0  0  0  0  0  4           0  0  0
   -0.6342   -0.0814   -1.2422 C   0  0  0  0  0  4           0  0  0
   -2.1409   -0.0300    1.0794 C   0  0  0  0  0  4           0  0  0
   -7.0368   -0.5916    2.0846 C   0  0  0  0  0  4           0  0  0
  -12.1489    1.8898    2.5187 C   0  0  0  0  0  4           0  0  0
  -12.9275    3.0505    2.5869 C   0  0  0  0  0  4           0  0  0
  -10.4054   -0.5050    2.5056 C   0  0  0  0  0  4           0  0  0
    1.9821    1.1159    0.6443 C   0  0  0  0  0  4           0  0  0
    1.8659    3.7469   -3.9677 C   0  0  0  0  0  4           0  0  0
   -0.8327    0.0082    3.5369 C   0  0  0  0  0  4           0  0  0
    2.8030    4.1706   -1.1223 C   0  0  0  0  0  4           0  0  0
    1.3921    2.9255   -2.7757 C   0  0  0  0  0  4           0  0  0
    3.2068    1.7278   -1.5072 C   0  0  0  0  0  4           0  0  0
   -9.3687   -1.5838    2.7223 C   0  0  0  0  0  4           0  0  0
    3.1422    5.2098   -0.6265 C   0  0  0  0  0  4           0  0  0
    3.3216    1.3980   -0.0245 C   0  0  0  0  0  4           0  0  0
  1 14  1  0     0  0
  2 15  1  0     0  0
  3 16  1  0     0  0
  3 32  1  0     0  0
  4 17  1  0     0  0
  4 34  1  0     0  0
  5 31  2  0     0  0
  6 33  1  0     0  0
  7  8  1  0     0  0
  7 22  1  0     0  0
  8 19  2  0     0  0
  9 18  2  0     0  0
  9 20  1  0     0  0
 10 18  1  0     0  0
 10 21  2  0     0  0
 11 19  1  0     0  0
 11 20  1  0     0  0
 12 23  1  0     0  0
 12 31  1  0     0  0
 13 35  1  0     0  0
 13 36  1  0     0  0
 13 37  1  0     0  0
 14 15  1  0     0  0
 14 23  2  0     0  0
 15 25  2  0     0  0
 16 17  1  0     0  0
 16 26  2  0     0  0
 17 27  2  0     0  0
 19 28  1  0     0  0
 20 24  2  0     0  0
 21 24  1  0     0  0
 21 26  1  0     0  0
 22 28  2  0     0  0
 22 38  1  0     0  0
 23 29  1  0     0  0
 24 27  1  0     0  0
 25 30  1  0     0  0
 29 30  2  0     0  0
 31 38  1  0     0  0
 32 40  1  0     0  0
 33 36  1  0     0  0
 35 39  3  0     0  0
 37 40  1  0     0  0
M  END
> <standard_type>
pIC50

> <# Confs.>
25

> <canonical_smiles>
FC1=CC=CC(NC(CC2=CC(NC3=C(C=C(OC)C(OCCCN(CCO)C#C)=C4)C4=NC=N3)=NN2)=O)=C1F

> <standard_relation>
=

> <Publication_ID>
nan

> <predicted_activity_value>
7.853871964321762

> <actual_activity_value>
7.823908740944319

> <Compound>
26

> <standard_units>
nM

> hash
388421990724528612

$$$$
26_
XXILIB    08252103423D 0   0.00000     0.00000

 40 43  0     1  0            999 V2000
  -10.9763   -1.6804    6.2655 F   0  0  0  0  0  1           0  0  0
  -12.4864   -3.8661    6.7920 F   0  0  0  0  0  1           0  0  0
    1.3664   -0.0000   -0.0000 O   0  0  0  0  0  2           0  0  0
   -0.0425    0.0084    2.3502 O   0  0  0  0  0  2           0  0  0
  -10.8829   -0.5214    1.4133 O   0  0  0  0  0  2           0  0  0
    3.0635    3.2003   -4.5067 O   0  0  0  0  0  2           0  0  0
   -8.2473    1.2061    0.4204 N   0  0  0  0  0  3           0  0  0
   -7.0721    0.9211   -0.1600 N   0  0  0  0  0  3           0  0  0
   -4.7514   -0.2139   -1.6049 N   0  0  0  0  0  3           0  0  0
   -2.5604   -0.1961   -2.5756 N   0  0  0  0  0  3           0  0  0
   -5.0709   -0.0971    0.7542 N   0  0  0  0  0  3           0  0  0
  -10.6555   -0.7099    3.7188 N   0  0  0  0  0  3           0  0  0
    2.3882    2.9040   -1.7223 N   0  0  1  0  0  3           0  0  0
  -11.5871   -2.3159    5.2544 C   0  0  0  0  0  4           0  0  0
  -12.3606   -3.4378    5.5283 C   0  0  0  0  0  4           0  0  0
    0.0000    0.0000    0.0000 C   0  0  0  0  0  4           0  0  0
   -0.7456    0.0000    1.1788 C   0  0  0  0  0  4           0  0  0
   -3.8984   -0.2438   -2.6375 C   0  0  0  0  0  4           0  0  0
   -6.3460    0.3682    0.8240 C   0  0  0  0  0  4           0  0  0
   -4.2071   -0.1104   -0.3668 C   0  0  0  0  0  4           0  0  0
   -2.0188   -0.1185   -1.3532 C   0  0  0  0  0  4           0  0  0
   -8.3173    0.8627    1.7406 C   0  0  0  0  0  4           0  0  0
  -11.4480   -1.8512    3.9456 C   0  0  0  0  0  4           0  0  0
   -2.8001   -0.0801   -0.1806 C   0  0  0  0  0  4           0  0  0
  -13.0062   -4.1188    4.5030 C   0  0  0  0  0  4           0  0  0
   -0.6342   -0.0814   -1.2422 C   0  0  0  0  0  4           0  0  0
   -2.1409   -0.0300    1.0794 C   0  0  0  0  0  4           0  0  0
   -7.0903    0.3115    2.0327 C   0  0  0  0  0  4           0  0  0
  -12.0996   -2.5331    2.9105 C   0  0  0  0  0  4           0  0  0
  -12.8745   -3.6638    3.1916 C   0  0  0  0  0  4           0  0  0
  -10.4214   -0.1295    2.4846 C   0  0  0  0  0  4           0  0  0
    1.9821    1.1159    0.6443 C   0  0  0  0  0  4           0  0  0
    1.8659    3.7469   -3.9677 C   0  0  0  0  0  4           0  0  0
   -0.8327    0.0082    3.5369 C   0  0  0  0  0  4           0  0  0
    2.8030    4.1706   -1.1223 C   0  0  0  0  0  4           0  0  0
    1.3921    2.9255   -2.7757 C   0  0  0  0  0  4           0  0  0
    3.2068    1.7278   -1.5072 C   0  0  0  0  0  4           0  0  0
   -9.5277    1.0869    2.5681 C   0  0  0  0  0  4           0  0  0
    3.1422    5.2098   -0.6265 C   0  0  0  0  0  4           0  0  0
    3.3216    1.3980   -0.0245 C   0  0  0  0  0  4           0  0  0
  1 14  1  0     0  0
  2 15  1  0     0  0
  3 16  1  0     0  0
  3 32  1  0     0  0
  4 17  1  0     0  0
  4 34  1  0     0  0
  5 31  2  0     0  0
  6 33  1  0     0  0
  7  8  1  0     0  0
  7 22  1  0     0  0
  8 19  2  0     0  0
  9 18  2  0     0  0
  9 20  1  0     0  0
 10 18  1  0     0  0
 10 21  2  0     0  0
 11 19  1  0     0  0
 11 20  1  0     0  0
 12 23  1  0     0  0
 12 31  1  0     0  0
 13 35  1  0     0  0
 13 36  1  0     0  0
 13 37  1  0     0  0
 14 15  1  0     0  0
 14 23  2  0     0  0
 15 25  2  0     0  0
 16 17  1  0     0  0
 16 26  2  0     0  0
 17 27  2  0     0  0
 19 28  1  0     0  0
 20 24  2  0     0  0
 21 24  1  0     0  0
 21 26  1  0     0  0
 22 28  2  0     0  0
 22 38  1  0     0  0
 23 29  1  0     0  0
 24 27  1  0     0  0
 25 30  1  0     0  0
 29 30  2  0     0  0
 31 38  1  0     0  0
 32 40  1  0     0  0
 33 36  1  0     0  0
 35 39  3  0     0  0
 37 40  1  0     0  0
M  END
> <standard_type>
pIC50

> <# Confs.>
25

> <canonical_smiles>
FC1=CC=CC(NC(CC2=CC(NC3=C(C=C(OC)C(OCCCN(CCO)C#C)=C4)C4=NC=N3)=NN2)=O)=C1F

> <standard_relation>
=

> <Publication_ID>
nan

> <predicted_activity_value>
7.853871964321762

> <actual_activity_value>
7.823908740944319

> <Compound>
26

> <standard_units>
nM

> hash
388421990724528612

$$$$
26_
XXILIB    08252103423D 0   0.00000     0.00000

 40 43  0     1  0            999 V2000
   -9.3203   -1.9889    7.5452 F   0  0  0  0  0  1           0  0  0
   -8.9741   -3.8331    9.4981 F   0  0  0  0  0  1           0  0  0
    1.3664   -0.0000   -0.0000 O   0  0  0  0  0  2           0  0  0
   -0.0425    0.0084    2.3502 O   0  0  0  0  0  2           0  0  0
   -8.9212   -3.9285    2.9654 O   0  0  0  0  0  2           0  0  0
    3.0635    3.2003   -4.5067 O   0  0  0  0  0  2           0  0  0
   -8.0704   -1.7928    0.5923 N   0  0  0  0  0  3           0  0  0
   -6.9321   -1.4415   -0.0240 N   0  0  0  0  0  3           0  0  0
   -4.7514   -0.2139   -1.6049 N   0  0  0  0  0  3           0  0  0
   -2.5604   -0.1961   -2.5756 N   0  0  0  0  0  3           0  0  0
   -5.0709   -0.0971    0.7542 N   0  0  0  0  0  3           0  0  0
   -9.1738   -2.6402    4.8834 N   0  0  0  0  0  3           0  0  0
    2.3882    2.9040   -1.7223 N   0  0  1  0  0  3           0  0  0
   -9.0656   -3.2622    7.2087 C   0  0  0  0  0  4           0  0  0
   -8.8876   -4.2057    8.2137 C   0  0  0  0  0  4           0  0  0
   -0.0000    0.0000    0.0000 C   0  0  0  0  0  4           0  0  0
   -0.7456   -0.0000    1.1788 C   0  0  0  0  0  4           0  0  0
   -3.8984   -0.2438   -2.6375 C   0  0  0  0  0  4           0  0  0
   -6.2828   -0.6982    0.8854 C   0  0  0  0  0  4           0  0  0
   -4.2071   -0.1104   -0.3668 C   0  0  0  0  0  4           0  0  0
   -2.0188   -0.1185   -1.3532 C   0  0  0  0  0  4           0  0  0
   -8.1904   -1.3096    1.8642 C   0  0  0  0  0  4           0  0  0
   -8.9845   -3.6315    5.8651 C   0  0  0  0  0  4           0  0  0
   -2.8001   -0.0801   -0.1806 C   0  0  0  0  0  4           0  0  0
   -8.6221   -5.5330    7.8981 C   0  0  0  0  0  4           0  0  0
   -0.6342   -0.0814   -1.2422 C   0  0  0  0  0  4           0  0  0
   -2.1409   -0.0300    1.0794 C   0  0  0  0  0  4           0  0  0
   -7.0368   -0.5916    2.0846 C   0  0  0  0  0  4           0  0  0
   -8.7202   -4.9685    5.5435 C   0  0  0  0  0  4           0  0  0
   -8.5388   -5.9136    6.5594 C   0  0  0  0  0  4           0  0  0
   -9.1247   -2.8470    3.5161 C   0  0  0  0  0  4           0  0  0
    1.9821    1.1159    0.6443 C   0  0  0  0  0  4           0  0  0
    1.8659    3.7469   -3.9677 C   0  0  0  0  0  4           0  0  0
   -0.8327    0.0082    3.5369 C   0  0  0  0  0  4           0  0  0
    2.8030    4.1706   -1.1223 C   0  0  0  0  0  4           0  0  0
    1.3921    2.9255   -2.7757 C   0  0  0  0  0  4           0  0  0
    3.2068    1.7278   -1.5072 C   0  0  0  0  0  4           0  0  0
   -9.3687   -1.5838    2.7223 C   0  0  0  0  0  4           0  0  0
    3.1422    5.2098   -0.6265 C   0  0  0  0  0  4           0  0  0
    3.3216    1.3980   -0.0245 C   0  0  0  0  0  4           0  0  0
  1 14  1  0     0  0
  2 15  1  0     0  0
  3 16  1  0     0  0
  3 32  1  0     0  0
  4 17  1  0     0  0
  4 34  1  0     0  0
  5 31  2  0     0  0
  6 33  1  0     0  0
  7  8  1  0     0  0
  7 22  1  0     0  0
  8 19  2  0     0  0
  9 18  2  0     0  0
  9 20  1  0     0  0
 10 18  1  0     0  0
 10 21  2  0     0  0
 11 19  1  0     0  0
 11 20  1  0     0  0
 12 23  1  0     0  0
 12 31  1  0     0  0
 13 35  1  0     0  0
 13 36  1  0     0  0
 13 37  1  0     0  0
 14 15  1  0     0  0
 14 23  2  0     0  0
 15 25  2  0     0  0
 16 17  1  0     0  0
 16 26  2  0     0  0
 17 27  2  0     0  0
 19 28  1  0     0  0
 20 24  2  0     0  0
 21 24  1  0     0  0
 21 26  1  0     0  0
 22 28  2  0     0  0
 22 38  1  0     0  0
 23 29  1  0     0  0
 24 27  1  0     0  0
 25 30  1  0     0  0
 29 30  2  0     0  0
 31 38  1  0     0  0
 32 40  1  0     0  0
 33 36  1  0     0  0
 35 39  3  0     0  0
 37 40  1  0     0  0
M  END
> <standard_type>
pIC50

> <# Confs.>
25

> <canonical_smiles>
FC1=CC=CC(NC(CC2=CC(NC3=C(C=C(OC)C(OCCCN(CCO)C#C)=C4)C4=NC=N3)=NN2)=O)=C1F

> <standard_relation>
=

> <Publication_ID>
nan

> <predicted_activity_value>
7.853871964321762

> <actual_activity_value>
7.823908740944319

> <Compound>
26

> <standard_units>
nM

> hash
388421990724528612

$$$$
26_
XXILIB    08252103423D 0   0.00000     0.00000

 40 43  0     1  0            999 V2000
   -9.4722    2.0458    7.3120 F   0  0  0  0  0  1           0  0  0
   -9.3461    4.1312    9.0355 F   0  0  0  0  0  1           0  0  0
    1.3664   -0.0000   -0.0000 O   0  0  0  0  0  2           0  0  0
   -0.0425    0.0084    2.3502 O   0  0  0  0  0  2           0  0  0
   -9.3750    3.4812    2.5343 O   0  0  0  0  0  2           0  0  0
    3.0635    3.2003   -4.5067 O   0  0  0  0  0  2           0  0  0
   -8.2473    1.2061    0.4204 N   0  0  0  0  0  3           0  0  0
   -7.0721    0.9211   -0.1600 N   0  0  0  0  0  3           0  0  0
   -4.7514   -0.2139   -1.6049 N   0  0  0  0  0  3           0  0  0
   -2.5604   -0.1961   -2.5756 N   0  0  0  0  0  3           0  0  0
   -5.0709   -0.0971    0.7542 N   0  0  0  0  0  3           0  0  0
   -9.4519    2.4010    4.5910 N   0  0  0  0  0  3           0  0  0
    2.3882    2.9040   -1.7223 N   0  0  1  0  0  3           0  0  0
   -9.4007    3.2948    6.8279 C   0  0  0  0  0  4           0  0  0
   -9.3371    4.3626    7.7155 C   0  0  0  0  0  4           0  0  0
    0.0000    0.0000    0.0000 C   0  0  0  0  0  4           0  0  0
   -0.7456    0.0000    1.1788 C   0  0  0  0  0  4           0  0  0
   -3.8984   -0.2438   -2.6375 C   0  0  0  0  0  4           0  0  0
   -6.3460    0.3682    0.8240 C   0  0  0  0  0  4           0  0  0
   -4.2071   -0.1104   -0.3668 C   0  0  0  0  0  4           0  0  0
   -2.0188   -0.1185   -1.3532 C   0  0  0  0  0  4           0  0  0
   -8.3173    0.8627    1.7406 C   0  0  0  0  0  4           0  0  0
   -9.3872    3.5149    5.4496 C   0  0  0  0  0  4           0  0  0
   -2.8001   -0.0801   -0.1806 C   0  0  0  0  0  4           0  0  0
   -9.2625    5.6686    7.2459 C   0  0  0  0  0  4           0  0  0
   -0.6342   -0.0814   -1.2422 C   0  0  0  0  0  4           0  0  0
   -2.1409   -0.0300    1.0794 C   0  0  0  0  0  4           0  0  0
   -7.0903    0.3115    2.0327 C   0  0  0  0  0  4           0  0  0
   -9.3091    4.8293    4.9730 C   0  0  0  0  0  4           0  0  0
   -9.2483    5.9006    5.8711 C   0  0  0  0  0  4           0  0  0
   -9.4481    2.4542    3.2082 C   0  0  0  0  0  4           0  0  0
    1.9821    1.1159    0.6443 C   0  0  0  0  0  4           0  0  0
    1.8659    3.7469   -3.9677 C   0  0  0  0  0  4           0  0  0
   -0.8327    0.0082    3.5369 C   0  0  0  0  0  4           0  0  0
    2.8030    4.1706   -1.1223 C   0  0  0  0  0  4           0  0  0
    1.3921    2.9255   -2.7757 C   0  0  0  0  0  4           0  0  0
    3.2068    1.7278   -1.5072 C   0  0  0  0  0  4           0  0  0
   -9.5277    1.0869    2.5681 C   0  0  0  0  0  4           0  0  0
    3.1422    5.2098   -0.6265 C   0  0  0  0  0  4           0  0  0
    3.3216    1.3980   -0.0245 C   0  0  0  0  0  4           0  0  0
  1 14  1  0     0  0
  2 15  1  0     0  0
  3 16  1  0     0  0
  3 32  1  0     0  0
  4 17  1  0     0  0
  4 34  1  0     0  0
  5 31  2  0     0  0
  6 33  1  0     0  0
  7  8  1  0     0  0
  7 22  1  0     0  0
  8 19  2  0     0  0
  9 18  2  0     0  0
  9 20  1  0     0  0
 10 18  1  0     0  0
 10 21  2  0     0  0
 11 19  1  0     0  0
 11 20  1  0     0  0
 12 23  1  0     0  0
 12 31  1  0     0  0
 13 35  1  0     0  0
 13 36  1  0     0  0
 13 37  1  0     0  0
 14 15  1  0     0  0
 14 23  2  0     0  0
 15 25  2  0     0  0
 16 17  1  0     0  0
 16 26  2  0     0  0
 17 27  2  0     0  0
 19 28  1  0     0  0
 20 24  2  0     0  0
 21 24  1  0     0  0
 21 26  1  0     0  0
 22 28  2  0     0  0
 22 38  1  0     0  0
 23 29  1  0     0  0
 24 27  1  0     0  0
 25 30  1  0     0  0
 29 30  2  0     0  0
 31 38  1  0     0  0
 32 40  1  0     0  0
 33 36  1  0     0  0
 35 39  3  0     0  0
 37 40  1  0     0  0
M  END
> <standard_type>
pIC50

> <# Confs.>
25

> <canonical_smiles>
FC1=CC=CC(NC(CC2=CC(NC3=C(C=C(OC)C(OCCCN(CCO)C#C)=C4)C4=NC=N3)=NN2)=O)=C1F

> <standard_relation>
=

> <Publication_ID>
nan

> <predicted_activity_value>
7.853871964321762

> <actual_activity_value>
7.823908740944319

> <Compound>
26

> <standard_units>
nM

> hash
388421990724528612

$$$$
26_
XXILIB    08252103423D 0   0.00000     0.00000

 40 43  0     1  0            999 V2000
   -7.5171    2.1531    6.8399 F   0  0  0  0  0  1           0  0  0
   -7.0516    4.2582    8.4791 F   0  0  0  0  0  1           0  0  0
    1.3664    0.0000    0.0000 O   0  0  0  0  0  2           0  0  0
   -0.0425    0.0084    2.3502 O   0  0  0  0  0  2           0  0  0
   -9.9024    3.4553    2.6553 O   0  0  0  0  0  2           0  0  0
    5.3881   -0.5925   -4.1119 O   0  0  0  0  0  2           0  0  0
   -8.2473    1.2061    0.4204 N   0  0  0  0  0  3           0  0  0
   -7.0721    0.9211   -0.1600 N   0  0  0  0  0  3           0  0  0
   -4.7514   -0.2139   -1.6049 N   0  0  0  0  0  3           0  0  0
   -2.5604   -0.1961   -2.5756 N   0  0  0  0  0  3           0  0  0
   -5.0709   -0.0971    0.7542 N   0  0  0  0  0  3           0  0  0
   -8.8110    2.4361    4.4365 N   0  0  0  0  0  3           0  0  0
    3.6909    1.0313   -2.4447 N   0  0  1  0  0  3           0  0  0
   -7.9320    3.3751    6.4739 C   0  0  0  0  0  4           0  0  0
   -7.6921    4.4529    7.3181 C   0  0  0  0  0  4           0  0  0
    0.0000    0.0000    0.0000 C   0  0  0  0  0  4           0  0  0
   -0.7456    0.0000    1.1788 C   0  0  0  0  0  4           0  0  0
   -3.8984   -0.2438   -2.6375 C   0  0  0  0  0  4           0  0  0
   -6.3460    0.3682    0.8240 C   0  0  0  0  0  4           0  0  0
   -4.2071   -0.1104   -0.3668 C   0  0  0  0  0  4           0  0  0
   -2.0188   -0.1185   -1.3532 C   0  0  0  0  0  4           0  0  0
   -8.3173    0.8627    1.7406 C   0  0  0  0  0  4           0  0  0
   -8.5929    3.5583    5.2581 C   0  0  0  0  0  4           0  0  0
   -2.8001   -0.0801   -0.1806 C   0  0  0  0  0  4           0  0  0
   -8.1094    5.7316    6.9680 C   0  0  0  0  0  4           0  0  0
   -0.6342   -0.0814   -1.2422 C   0  0  0  0  0  4           0  0  0
   -2.1409   -0.0300    1.0794 C   0  0  0  0  0  4           0  0  0
   -7.0903    0.3115    2.0327 C   0  0  0  0  0  4           0  0  0
   -9.0121    4.8458    4.9008 C   0  0  0  0  0  4           0  0  0
   -8.7706    5.9267    5.7561 C   0  0  0  0  0  4           0  0  0
   -9.4481    2.4542    3.2082 C   0  0  0  0  0  4           0  0  0
    1.9821    1.2885    0.0000 C   0  0  0  0  0  4           0  0  0
    4.2726    0.1111   -4.6447 C   0  0  0  0  0  4           0  0  0
   -0.8327    0.0082    3.5369 C   0  0  0  0  0  4           0  0  0
    4.1846    2.3905   -2.6571 C   0  0  0  0  0  4           0  0  0
    3.1934    0.2850   -3.5840 C   0  0  0  0  0  4           0  0  0
    4.0234    0.3526   -1.2084 C   0  0  0  0  0  4           0  0  0
   -9.5277    1.0869    2.5681 C   0  0  0  0  0  4           0  0  0
    4.5873    3.5081   -2.8297 C   0  0  0  0  0  4           0  0  0
    3.4957    1.1152   -0.0000 C   0  0  0  0  0  4           0  0  0
  1 14  1  0     0  0
  2 15  1  0     0  0
  3 16  1  0     0  0
  3 32  1  0     0  0
  4 17  1  0     0  0
  4 34  1  0     0  0
  5 31  2  0     0  0
  6 33  1  0     0  0
  7  8  1  0     0  0
  7 22  1  0     0  0
  8 19  2  0     0  0
  9 18  2  0     0  0
  9 20  1  0     0  0
 10 18  1  0     0  0
 10 21  2  0     0  0
 11 19  1  0     0  0
 11 20  1  0     0  0
 12 23  1  0     0  0
 12 31  1  0     0  0
 13 35  1  0     0  0
 13 36  1  0     0  0
 13 37  1  0     0  0
 14 15  1  0     0  0
 14 23  2  0     0  0
 15 25  2  0     0  0
 16 17  1  0     0  0
 16 26  2  0     0  0
 17 27  2  0     0  0
 19 28  1  0     0  0
 20 24  2  0     0  0
 21 24  1  0     0  0
 21 26  1  0     0  0
 22 28  2  0     0  0
 22 38  1  0     0  0
 23 29  1  0     0  0
 24 27  1  0     0  0
 25 30  1  0     0  0
 29 30  2  0     0  0
 31 38  1  0     0  0
 32 40  1  0     0  0
 33 36  1  0     0  0
 35 39  3  0     0  0
 37 40  1  0     0  0
M  END
> <standard_type>
pIC50

> <# Confs.>
25

> <canonical_smiles>
FC1=CC=CC(NC(CC2=CC(NC3=C(C=C(OC)C(OCCCN(CCO)C#C)=C4)C4=NC=N3)=NN2)=O)=C1F

> <standard_relation>
=

> <Publication_ID>
nan

> <predicted_activity_value>
7.853871964321762

> <actual_activity_value>
7.823908740944319

> <Compound>
26

> <standard_units>
nM

> hash
388421990724528612

$$$$
26_
XXILIB    08252103423D 0   0.00000     0.00000

 40 43  0     1  0            999 V2000
   -9.4462   -2.7529    5.5136 F   0  0  0  0  0  1           0  0  0
  -10.6896   -5.1258    5.9116 F   0  0  0  0  0  1           0  0  0
    1.3664    0.0000    0.0000 O   0  0  0  0  0  2           0  0  0
   -0.0425    0.0084    2.3502 O   0  0  0  0  0  2           0  0  0
  -11.2925   -0.2347    1.6218 O   0  0  0  0  0  2           0  0  0
    5.3881   -0.5925   -4.1119 O   0  0  0  0  0  2           0  0  0
   -8.2473    1.2061    0.4204 N   0  0  0  0  0  3           0  0  0
   -7.0721    0.9211   -0.1600 N   0  0  0  0  0  3           0  0  0
   -4.7514   -0.2139   -1.6049 N   0  0  0  0  0  3           0  0  0
   -2.5604   -0.1961   -2.5756 N   0  0  0  0  0  3           0  0  0
   -5.0709   -0.0971    0.7542 N   0  0  0  0  0  3           0  0  0
  -10.1542   -1.0613    3.4721 N   0  0  0  0  0  3           0  0  0
    3.6909    1.0313   -2.4447 N   0  0  1  0  0  3           0  0  0
  -10.4380   -3.1214    4.6890 C   0  0  0  0  0  4           0  0  0
  -11.0732   -4.3403    4.8958 C   0  0  0  0  0  4           0  0  0
    0.0000    0.0000    0.0000 C   0  0  0  0  0  4           0  0  0
   -0.7456    0.0000    1.1788 C   0  0  0  0  0  4           0  0  0
   -3.8984   -0.2438   -2.6375 C   0  0  0  0  0  4           0  0  0
   -6.3460    0.3682    0.8240 C   0  0  0  0  0  4           0  0  0
   -4.2071   -0.1104   -0.3668 C   0  0  0  0  0  4           0  0  0
   -2.0188   -0.1185   -1.3532 C   0  0  0  0  0  4           0  0  0
   -8.3173    0.8627    1.7406 C   0  0  0  0  0  4           0  0  0
  -10.8266   -2.2868    3.6398 C   0  0  0  0  0  4           0  0  0
   -2.8001   -0.0801   -0.1806 C   0  0  0  0  0  4           0  0  0
  -12.1041   -4.7511    4.0590 C   0  0  0  0  0  4           0  0  0
   -0.6342   -0.0814   -1.2422 C   0  0  0  0  0  4           0  0  0
   -2.1409   -0.0300    1.0794 C   0  0  0  0  0  4           0  0  0
   -7.0903    0.3115    2.0327 C   0  0  0  0  0  4           0  0  0
  -11.8669   -2.6962    2.7966 C   0  0  0  0  0  4           0  0  0
  -12.5008   -3.9258    3.0076 C   0  0  0  0  0  4           0  0  0
  -10.4214   -0.1295    2.4846 C   0  0  0  0  0  4           0  0  0
    1.9821    1.2885    0.0000 C   0  0  0  0  0  4           0  0  0
    4.2726    0.1111   -4.6447 C   0  0  0  0  0  4           0  0  0
   -0.8327    0.0082    3.5369 C   0  0  0  0  0  4           0  0  0
    4.1846    2.3905   -2.6571 C   0  0  0  0  0  4           0  0  0
    3.1934    0.2850   -3.5840 C   0  0  0  0  0  4           0  0  0
    4.0234    0.3526   -1.2084 C   0  0  0  0  0  4           0  0  0
   -9.5277    1.0869    2.5681 C   0  0  0  0  0  4           0  0  0
    4.5873    3.5081   -2.8297 C   0  0  0  0  0  4           0  0  0
    3.4957    1.1152   -0.0000 C   0  0  0  0  0  4           0  0  0
  1 14  1  0     0  0
  2 15  1  0     0  0
  3 16  1  0     0  0
  3 32  1  0     0  0
  4 17  1  0     0  0
  4 34  1  0     0  0
  5 31  2  0     0  0
  6 33  1  0     0  0
  7  8  1  0     0  0
  7 22  1  0     0  0
  8 19  2  0     0  0
  9 18  2  0     0  0
  9 20  1  0     0  0
 10 18  1  0     0  0
 10 21  2  0     0  0
 11 19  1  0     0  0
 11 20  1  0     0  0
 12 23  1  0     0  0
 12 31  1  0     0  0
 13 35  1  0     0  0
 13 36  1  0     0  0
 13 37  1  0     0  0
 14 15  1  0     0  0
 14 23  2  0     0  0
 15 25  2  0     0  0
 16 17  1  0     0  0
 16 26  2  0     0  0
 17 27  2  0     0  0
 19 28  1  0     0  0
 20 24  2  0     0  0
 21 24  1  0     0  0
 21 26  1  0     0  0
 22 28  2  0     0  0
 22 38  1  0     0  0
 23 29  1  0     0  0
 24 27  1  0     0  0
 25 30  1  0     0  0
 29 30  2  0     0  0
 31 38  1  0     0  0
 32 40  1  0     0  0
 33 36  1  0     0  0
 35 39  3  0     0  0
 37 40  1  0     0  0
M  END
> <standard_type>
pIC50

> <# Confs.>
25

> <canonical_smiles>
FC1=CC=CC(NC(CC2=CC(NC3=C(C=C(OC)C(OCCCN(CCO)C#C)=C4)C4=NC=N3)=NN2)=O)=C1F

> <standard_relation>
=

> <Publication_ID>
nan

> <predicted_activity_value>
7.853871964321762

> <actual_activity_value>
7.823908740944319

> <Compound>
26

> <standard_units>
nM

> hash
388421990724528612

$$$$
26_
XXILIB    08252103423D 0   0.00000     0.00000

 40 43  0     1  0            999 V2000
   -7.3559   -1.8803    7.1141 F   0  0  0  0  0  1           0  0  0
   -6.6676   -3.7043    8.9940 F   0  0  0  0  0  1           0  0  0
    1.3664    0.0000    0.0000 O   0  0  0  0  0  2           0  0  0
   -0.0425    0.0084    2.3502 O   0  0  0  0  0  2           0  0  0
   -9.4484   -3.9539    3.0870 O   0  0  0  0  0  2           0  0  0
    5.3881   -0.5925   -4.1119 O   0  0  0  0  0  2           0  0  0
   -8.0704   -1.7928    0.5923 N   0  0  0  0  0  3           0  0  0
   -6.9321   -1.4415   -0.0240 N   0  0  0  0  0  3           0  0  0
   -4.7514   -0.2139   -1.6049 N   0  0  0  0  0  3           0  0  0
   -2.5604   -0.1961   -2.5756 N   0  0  0  0  0  3           0  0  0
   -5.0709   -0.0971    0.7542 N   0  0  0  0  0  3           0  0  0
   -8.5301   -2.6047    4.7419 N   0  0  0  0  0  3           0  0  0
    3.6909    1.0313   -2.4447 N   0  0  1  0  0  3           0  0  0
   -7.5901   -3.1810    6.8843 C   0  0  0  0  0  4           0  0  0
   -7.2347   -4.1142    7.8511 C   0  0  0  0  0  4           0  0  0
   -0.0000    0.0000    0.0000 C   0  0  0  0  0  4           0  0  0
   -0.7456   -0.0000    1.1788 C   0  0  0  0  0  4           0  0  0
   -3.8984   -0.2438   -2.6375 C   0  0  0  0  0  4           0  0  0
   -6.2828   -0.6982    0.8854 C   0  0  0  0  0  4           0  0  0
   -4.2071   -0.1104   -0.3668 C   0  0  0  0  0  4           0  0  0
   -2.0188   -0.1185   -1.3532 C   0  0  0  0  0  4           0  0  0
   -8.1904   -1.3096    1.8642 C   0  0  0  0  0  4           0  0  0
   -8.1865   -3.5876    5.6896 C   0  0  0  0  0  4           0  0  0
   -2.8001   -0.0801   -0.1806 C   0  0  0  0  0  4           0  0  0
   -7.4638   -5.4693    7.6434 C   0  0  0  0  0  4           0  0  0
   -0.6342   -0.0814   -1.2422 C   0  0  0  0  0  4           0  0  0
   -2.1409   -0.0300    1.0794 C   0  0  0  0  0  4           0  0  0
   -7.0368   -0.5916    2.0846 C   0  0  0  0  0  4           0  0  0
   -8.4216   -4.9518    5.4783 C   0  0  0  0  0  4           0  0  0
   -8.0589   -5.8872    6.4538 C   0  0  0  0  0  4           0  0  0
   -9.1247   -2.8470    3.5161 C   0  0  0  0  0  4           0  0  0
    1.9821    1.2885    0.0000 C   0  0  0  0  0  4           0  0  0
    4.2726    0.1111   -4.6447 C   0  0  0  0  0  4           0  0  0
   -0.8327    0.0082    3.5369 C   0  0  0  0  0  4           0  0  0
    4.1846    2.3905   -2.6571 C   0  0  0  0  0  4           0  0  0
    3.1934    0.2850   -3.5840 C   0  0  0  0  0  4           0  0  0
    4.0234    0.3526   -1.2084 C   0  0  0  0  0  4           0  0  0
   -9.3687   -1.5838    2.7223 C   0  0  0  0  0  4           0  0  0
    4.5873    3.5081   -2.8297 C   0  0  0  0  0  4           0  0  0
    3.4957    1.1152   -0.0000 C   0  0  0  0  0  4           0  0  0
  1 14  1  0     0  0
  2 15  1  0     0  0
  3 16  1  0     0  0
  3 32  1  0     0  0
  4 17  1  0     0  0
  4 34  1  0     0  0
  5 31  2  0     0  0
  6 33  1  0     0  0
  7  8  1  0     0  0
  7 22  1  0     0  0
  8 19  2  0     0  0
  9 18  2  0     0  0
  9 20  1  0     0  0
 10 18  1  0     0  0
 10 21  2  0     0  0
 11 19  1  0     0  0
 11 20  1  0     0  0
 12 23  1  0     0  0
 12 31  1  0     0  0
 13 35  1  0     0  0
 13 36  1  0     0  0
 13 37  1  0     0  0
 14 15  1  0     0  0
 14 23  2  0     0  0
 15 25  2  0     0  0
 16 17  1  0     0  0
 16 26  2  0     0  0
 17 27  2  0     0  0
 19 28  1  0     0  0
 20 24  2  0     0  0
 21 24  1  0     0  0
 21 26  1  0     0  0
 22 28  2  0     0  0
 22 38  1  0     0  0
 23 29  1  0     0  0
 24 27  1  0     0  0
 25 30  1  0     0  0
 29 30  2  0     0  0
 31 38  1  0     0  0
 32 40  1  0     0  0
 33 36  1  0     0  0
 35 39  3  0     0  0
 37 40  1  0     0  0
M  END
> <standard_type>
pIC50

> <# Confs.>
25

> <canonical_smiles>
FC1=CC=CC(NC(CC2=CC(NC3=C(C=C(OC)C(OCCCN(CCO)C#C)=C4)C4=NC=N3)=NN2)=O)=C1F

> <standard_relation>
=

> <Publication_ID>
nan

> <predicted_activity_value>
7.853871964321762

> <actual_activity_value>
7.823908740944319

> <Compound>
26

> <standard_units>
nM

> hash
388421990724528612

$$$$
26_
XXILIB    08252103423D 0   0.00000     0.00000

 40 43  0     1  0            999 V2000
   -7.5171    2.1531    6.8399 F   0  0  0  0  0  1           0  0  0
   -7.0516    4.2582    8.4791 F   0  0  0  0  0  1           0  0  0
    1.3664    0.0000    0.0000 O   0  0  0  0  0  2           0  0  0
   -0.0425    0.0084    2.3502 O   0  0  0  0  0  2           0  0  0
   -9.9024    3.4553    2.6553 O   0  0  0  0  0  2           0  0  0
    6.1529    4.5838    2.2644 O   0  0  0  0  0  2           0  0  0
   -8.2473    1.2061    0.4204 N   0  0  0  0  0  3           0  0  0
   -7.0721    0.9211   -0.1600 N   0  0  0  0  0  3           0  0  0
   -4.7514   -0.2139   -1.6049 N   0  0  0  0  0  3           0  0  0
   -2.5604   -0.1961   -2.5756 N   0  0  0  0  0  3           0  0  0
   -5.0709   -0.0971    0.7542 N   0  0  0  0  0  3           0  0  0
   -8.8110    2.4361    4.4365 N   0  0  0  0  0  3           0  0  0
    4.3569    2.3491    1.9868 N   0  0  1  0  0  3           0  0  0
   -7.9320    3.3751    6.4739 C   0  0  0  0  0  4           0  0  0
   -7.6921    4.4529    7.3181 C   0  0  0  0  0  4           0  0  0
    0.0000    0.0000    0.0000 C   0  0  0  0  0  4           0  0  0
   -0.7456    0.0000    1.1788 C   0  0  0  0  0  4           0  0  0
   -3.8984   -0.2438   -2.6375 C   0  0  0  0  0  4           0  0  0
   -6.3460    0.3682    0.8240 C   0  0  0  0  0  4           0  0  0
   -4.2071   -0.1104   -0.3668 C   0  0  0  0  0  4           0  0  0
   -2.0188   -0.1185   -1.3532 C   0  0  0  0  0  4           0  0  0
   -8.3173    0.8627    1.7406 C   0  0  0  0  0  4           0  0  0
   -8.5929    3.5583    5.2581 C   0  0  0  0  0  4           0  0  0
   -2.8001   -0.0801   -0.1806 C   0  0  0  0  0  4           0  0  0
   -8.1094    5.7316    6.9680 C   0  0  0  0  0  4           0  0  0
   -0.6342   -0.0814   -1.2422 C   0  0  0  0  0  4           0  0  0
   -2.1409   -0.0300    1.0794 C   0  0  0  0  0  4           0  0  0
   -7.0903    0.3115    2.0327 C   0  0  0  0  0  4           0  0  0
   -9.0121    4.8458    4.9008 C   0  0  0  0  0  4           0  0  0
   -8.7706    5.9267    5.7561 C   0  0  0  0  0  4           0  0  0
   -9.4481    2.4542    3.2082 C   0  0  0  0  0  4           0  0  0
    1.9821    1.1159    0.6443 C   0  0  0  0  0  4           0  0  0
    5.4787    4.0254    3.3856 C   0  0  0  0  0  4           0  0  0
   -0.8327    0.0082    3.5369 C   0  0  0  0  0  4           0  0  0
    5.1701    1.1945    2.3635 C   0  0  0  0  0  4           0  0  0
    4.1543    3.4054    2.9591 C   0  0  0  0  0  4           0  0  0
    4.0725    2.5753    0.5841 C   0  0  0  0  0  4           0  0  0
   -9.5277    1.0869    2.5681 C   0  0  0  0  0  4           0  0  0
    5.8351    0.2442    2.6728 C   0  0  0  0  0  4           0  0  0
    3.3216    1.3980   -0.0245 C   0  0  0  0  0  4           0  0  0
  1 14  1  0     0  0
  2 15  1  0     0  0
  3 16  1  0     0  0
  3 32  1  0     0  0
  4 17  1  0     0  0
  4 34  1  0     0  0
  5 31  2  0     0  0
  6 33  1  0     0  0
  7  8  1  0     0  0
  7 22  1  0     0  0
  8 19  2  0     0  0
  9 18  2  0     0  0
  9 20  1  0     0  0
 10 18  1  0     0  0
 10 21  2  0     0  0
 11 19  1  0     0  0
 11 20  1  0     0  0
 12 23  1  0     0  0
 12 31  1  0     0  0
 13 35  1  0     0  0
 13 36  1  0     0  0
 13 37  1  0     0  0
 14 15  1  0     0  0
 14 23  2  0     0  0
 15 25  2  0     0  0
 16 17  1  0     0  0
 16 26  2  0     0  0
 17 27  2  0     0  0
 19 28  1  0     0  0
 20 24  2  0     0  0
 21 24  1  0     0  0
 21 26  1  0     0  0
 22 28  2  0     0  0
 22 38  1  0     0  0
 23 29  1  0     0  0
 24 27  1  0     0  0
 25 30  1  0     0  0
 29 30  2  0     0  0
 31 38  1  0     0  0
 32 40  1  0     0  0
 33 36  1  0     0  0
 35 39  3  0     0  0
 37 40  1  0     0  0
M  END
> <standard_type>
pIC50

> <# Confs.>
25

> <canonical_smiles>
FC1=CC=CC(NC(CC2=CC(NC3=C(C=C(OC)C(OCCCN(CCO)C#C)=C4)C4=NC=N3)=NN2)=O)=C1F

> <standard_relation>
=

> <Publication_ID>
nan

> <predicted_activity_value>
7.853871964321762

> <actual_activity_value>
7.823908740944319

> <Compound>
26

> <standard_units>
nM

> hash
388421990724528612

$$$$
26_
XXILIB    08252103423D 0   0.00000     0.00000

 40 43  0     1  0            999 V2000
   -9.4462   -2.7529    5.5136 F   0  0  0  0  0  1           0  0  0
  -10.6896   -5.1258    5.9116 F   0  0  0  0  0  1           0  0  0
    1.3664    0.0000    0.0000 O   0  0  0  0  0  2           0  0  0
   -0.0425    0.0084    2.3502 O   0  0  0  0  0  2           0  0  0
  -11.2925   -0.2347    1.6218 O   0  0  0  0  0  2           0  0  0
    6.1529    4.5838    2.2644 O   0  0  0  0  0  2           0  0  0
   -8.2473    1.2061    0.4204 N   0  0  0  0  0  3           0  0  0
   -7.0721    0.9211   -0.1600 N   0  0  0  0  0  3           0  0  0
   -4.7514   -0.2139   -1.6049 N   0  0  0  0  0  3           0  0  0
   -2.5604   -0.1961   -2.5756 N   0  0  0  0  0  3           0  0  0
   -5.0709   -0.0971    0.7542 N   0  0  0  0  0  3           0  0  0
  -10.1542   -1.0613    3.4721 N   0  0  0  0  0  3           0  0  0
    4.3569    2.3491    1.9868 N   0  0  1  0  0  3           0  0  0
  -10.4380   -3.1214    4.6890 C   0  0  0  0  0  4           0  0  0
  -11.0732   -4.3403    4.8958 C   0  0  0  0  0  4           0  0  0
    0.0000    0.0000    0.0000 C   0  0  0  0  0  4           0  0  0
   -0.7456    0.0000    1.1788 C   0  0  0  0  0  4           0  0  0
   -3.8984   -0.2438   -2.6375 C   0  0  0  0  0  4           0  0  0
   -6.3460    0.3682    0.8240 C   0  0  0  0  0  4           0  0  0
   -4.2071   -0.1104   -0.3668 C   0  0  0  0  0  4           0  0  0
   -2.0188   -0.1185   -1.3532 C   0  0  0  0  0  4           0  0  0
   -8.3173    0.8627    1.7406 C   0  0  0  0  0  4           0  0  0
  -10.8266   -2.2868    3.6398 C   0  0  0  0  0  4           0  0  0
   -2.8001   -0.0801   -0.1806 C   0  0  0  0  0  4           0  0  0
  -12.1041   -4.7511    4.0590 C   0  0  0  0  0  4           0  0  0
   -0.6342   -0.0814   -1.2422 C   0  0  0  0  0  4           0  0  0
   -2.1409   -0.0300    1.0794 C   0  0  0  0  0  4           0  0  0
   -7.0903    0.3115    2.0327 C   0  0  0  0  0  4           0  0  0
  -11.8669   -2.6962    2.7966 C   0  0  0  0  0  4           0  0  0
  -12.5008   -3.9258    3.0076 C   0  0  0  0  0  4           0  0  0
  -10.4214   -0.1295    2.4846 C   0  0  0  0  0  4           0  0  0
    1.9821    1.1159    0.6443 C   0  0  0  0  0  4           0  0  0
    5.4787    4.0254    3.3856 C   0  0  0  0  0  4           0  0  0
   -0.8327    0.0082    3.5369 C   0  0  0  0  0  4           0  0  0
    5.1701    1.1945    2.3635 C   0  0  0  0  0  4           0  0  0
    4.1543    3.4054    2.9591 C   0  0  0  0  0  4           0  0  0
    4.0725    2.5753    0.5841 C   0  0  0  0  0  4           0  0  0
   -9.5277    1.0869    2.5681 C   0  0  0  0  0  4           0  0  0
    5.8351    0.2442    2.6728 C   0  0  0  0  0  4           0  0  0
    3.3216    1.3980   -0.0245 C   0  0  0  0  0  4           0  0  0
  1 14  1  0     0  0
  2 15  1  0     0  0
  3 16  1  0     0  0
  3 32  1  0     0  0
  4 17  1  0     0  0
  4 34  1  0     0  0
  5 31  2  0     0  0
  6 33  1  0     0  0
  7  8  1  0     0  0
  7 22  1  0     0  0
  8 19  2  0     0  0
  9 18  2  0     0  0
  9 20  1  0     0  0
 10 18  1  0     0  0
 10 21  2  0     0  0
 11 19  1  0     0  0
 11 20  1  0     0  0
 12 23  1  0     0  0
 12 31  1  0     0  0
 13 35  1  0     0  0
 13 36  1  0     0  0
 13 37  1  0     0  0
 14 15  1  0     0  0
 14 23  2  0     0  0
 15 25  2  0     0  0
 16 17  1  0     0  0
 16 26  2  0     0  0
 17 27  2  0     0  0
 19 28  1  0     0  0
 20 24  2  0     0  0
 21 24  1  0     0  0
 21 26  1  0     0  0
 22 28  2  0     0  0
 22 38  1  0     0  0
 23 29  1  0     0  0
 24 27  1  0     0  0
 25 30  1  0     0  0
 29 30  2  0     0  0
 31 38  1  0     0  0
 32 40  1  0     0  0
 33 36  1  0     0  0
 35 39  3  0     0  0
 37 40  1  0     0  0
M  END
> <standard_type>
pIC50

> <# Confs.>
25

> <canonical_smiles>
FC1=CC=CC(NC(CC2=CC(NC3=C(C=C(OC)C(OCCCN(CCO)C#C)=C4)C4=NC=N3)=NN2)=O)=C1F

> <standard_relation>
=

> <Publication_ID>
nan

> <predicted_activity_value>
7.853871964321762

> <actual_activity_value>
7.823908740944319

> <Compound>
26

> <standard_units>
nM

> hash
388421990724528612

$$$$
26_
XXILIB    08252103423D 0   0.00000     0.00000

 40 43  0     1  0            999 V2000
   -7.3559   -1.8803    7.1141 F   0  0  0  0  0  1           0  0  0
   -6.6676   -3.7043    8.9940 F   0  0  0  0  0  1           0  0  0
    1.3664    0.0000   -0.0000 O   0  0  0  0  0  2           0  0  0
   -0.0425    0.0084    2.3502 O   0  0  0  0  0  2           0  0  0
   -9.4484   -3.9539    3.0870 O   0  0  0  0  0  2           0  0  0
    5.4554   -5.5419    1.2715 O   0  0  0  0  0  2           0  0  0
   -8.0704   -1.7928    0.5923 N   0  0  0  0  0  3           0  0  0
   -6.9321   -1.4415   -0.0240 N   0  0  0  0  0  3           0  0  0
   -4.7514   -0.2139   -1.6049 N   0  0  0  0  0  3           0  0  0
   -2.5604   -0.1961   -2.5756 N   0  0  0  0  0  3           0  0  0
   -5.0709   -0.0971    0.7542 N   0  0  0  0  0  3           0  0  0
   -8.5301   -2.6047    4.7419 N   0  0  0  0  0  3           0  0  0
    3.3018   -3.7984    0.4848 N   0  0  1  0  0  3           0  0  0
   -7.5901   -3.1810    6.8843 C   0  0  0  0  0  4           0  0  0
   -7.2347   -4.1142    7.8511 C   0  0  0  0  0  4           0  0  0
   -0.0000    0.0000    0.0000 C   0  0  0  0  0  4           0  0  0
   -0.7456   -0.0000    1.1788 C   0  0  0  0  0  4           0  0  0
   -3.8984   -0.2438   -2.6375 C   0  0  0  0  0  4           0  0  0
   -6.2828   -0.6982    0.8854 C   0  0  0  0  0  4           0  0  0
   -4.2071   -0.1104   -0.3668 C   0  0  0  0  0  4           0  0  0
   -2.0188   -0.1185   -1.3532 C   0  0  0  0  0  4           0  0  0
   -8.1904   -1.3096    1.8642 C   0  0  0  0  0  4           0  0  0
   -8.1865   -3.5876    5.6896 C   0  0  0  0  0  4           0  0  0
   -2.8001   -0.0801   -0.1806 C   0  0  0  0  0  4           0  0  0
   -7.4638   -5.4693    7.6434 C   0  0  0  0  0  4           0  0  0
   -0.6342   -0.0814   -1.2422 C   0  0  0  0  0  4           0  0  0
   -2.1409   -0.0300    1.0794 C   0  0  0  0  0  4           0  0  0
   -7.0368   -0.5916    2.0846 C   0  0  0  0  0  4           0  0  0
   -8.4216   -4.9518    5.4783 C   0  0  0  0  0  4           0  0  0
   -8.0589   -5.8872    6.4538 C   0  0  0  0  0  4           0  0  0
   -9.1247   -2.8470    3.5161 C   0  0  0  0  0  4           0  0  0
    1.9821   -1.1159    0.6443 C   0  0  0  0  0  4           0  0  0
    4.0937   -5.9279    1.4141 C   0  0  0  0  0  4           0  0  0
   -0.8327    0.0082    3.5369 C   0  0  0  0  0  4           0  0  0
    2.9201   -4.2852   -0.8395 C   0  0  0  0  0  4           0  0  0
    3.2089   -4.7041    1.6132 C   0  0  0  0  0  4           0  0  0
    4.0725   -2.5753    0.5841 C   0  0  0  0  0  4           0  0  0
   -9.3687   -1.5838    2.7223 C   0  0  0  0  0  4           0  0  0
    2.6038   -4.6828   -1.9271 C   0  0  0  0  0  4           0  0  0
    3.3216   -1.3980   -0.0245 C   0  0  0  0  0  4           0  0  0
  1 14  1  0     0  0
  2 15  1  0     0  0
  3 16  1  0     0  0
  3 32  1  0     0  0
  4 17  1  0     0  0
  4 34  1  0     0  0
  5 31  2  0     0  0
  6 33  1  0     0  0
  7  8  1  0     0  0
  7 22  1  0     0  0
  8 19  2  0     0  0
  9 18  2  0     0  0
  9 20  1  0     0  0
 10 18  1  0     0  0
 10 21  2  0     0  0
 11 19  1  0     0  0
 11 20  1  0     0  0
 12 23  1  0     0  0
 12 31  1  0     0  0
 13 35  1  0     0  0
 13 36  1  0     0  0
 13 37  1  0     0  0
 14 15  1  0     0  0
 14 23  2  0     0  0
 15 25  2  0     0  0
 16 17  1  0     0  0
 16 26  2  0     0  0
 17 27  2  0     0  0
 19 28  1  0     0  0
 20 24  2  0     0  0
 21 24  1  0     0  0
 21 26  1  0     0  0
 22 28  2  0     0  0
 22 38  1  0     0  0
 23 29  1  0     0  0
 24 27  1  0     0  0
 25 30  1  0     0  0
 29 30  2  0     0  0
 31 38  1  0     0  0
 32 40  1  0     0  0
 33 36  1  0     0  0
 35 39  3  0     0  0
 37 40  1  0     0  0
M  END
> <standard_type>
pIC50

> <# Confs.>
25

> <canonical_smiles>
FC1=CC=CC(NC(CC2=CC(NC3=C(C=C(OC)C(OCCCN(CCO)C#C)=C4)C4=NC=N3)=NN2)=O)=C1F

> <standard_relation>
=

> <Publication_ID>
nan

> <predicted_activity_value>
7.853871964321762

> <actual_activity_value>
7.823908740944319

> <Compound>
26

> <standard_units>
nM

> hash
388421990724528612

$$$$
26_
XXILIB    08252103423D 0   0.00000     0.00000

 40 43  0     1  0            999 V2000
   -7.3559   -1.8803    7.1141 F   0  0  0  0  0  1           0  0  0
   -6.6676   -3.7043    8.9940 F   0  0  0  0  0  1           0  0  0
    1.3664   -0.0000   -0.0000 O   0  0  0  0  0  2           0  0  0
   -0.0425    0.0084    2.3502 O   0  0  0  0  0  2           0  0  0
   -9.4484   -3.9539    3.0870 O   0  0  0  0  0  2           0  0  0
    5.3881    0.5925    4.1119 O   0  0  0  0  0  2           0  0  0
   -8.0704   -1.7928    0.5923 N   0  0  0  0  0  3           0  0  0
   -6.9321   -1.4415   -0.0240 N   0  0  0  0  0  3           0  0  0
   -4.7514   -0.2139   -1.6049 N   0  0  0  0  0  3           0  0  0
   -2.5604   -0.1961   -2.5756 N   0  0  0  0  0  3           0  0  0
   -5.0709   -0.0971    0.7542 N   0  0  0  0  0  3           0  0  0
   -8.5301   -2.6047    4.7419 N   0  0  0  0  0  3           0  0  0
    3.6909   -1.0313    2.4447 N   0  0  1  0  0  3           0  0  0
   -7.5901   -3.1810    6.8843 C   0  0  0  0  0  4           0  0  0
   -7.2347   -4.1142    7.8511 C   0  0  0  0  0  4           0  0  0
   -0.0000    0.0000    0.0000 C   0  0  0  0  0  4           0  0  0
   -0.7456   -0.0000    1.1788 C   0  0  0  0  0  4           0  0  0
   -3.8984   -0.2438   -2.6375 C   0  0  0  0  0  4           0  0  0
   -6.2828   -0.6982    0.8854 C   0  0  0  0  0  4           0  0  0
   -4.2071   -0.1104   -0.3668 C   0  0  0  0  0  4           0  0  0
   -2.0188   -0.1185   -1.3532 C   0  0  0  0  0  4           0  0  0
   -8.1904   -1.3096    1.8642 C   0  0  0  0  0  4           0  0  0
   -8.1865   -3.5876    5.6896 C   0  0  0  0  0  4           0  0  0
   -2.8001   -0.0801   -0.1806 C   0  0  0  0  0  4           0  0  0
   -7.4638   -5.4693    7.6434 C   0  0  0  0  0  4           0  0  0
   -0.6342   -0.0814   -1.2422 C   0  0  0  0  0  4           0  0  0
   -2.1409   -0.0300    1.0794 C   0  0  0  0  0  4           0  0  0
   -7.0368   -0.5916    2.0846 C   0  0  0  0  0  4           0  0  0
   -8.4216   -4.9518    5.4783 C   0  0  0  0  0  4           0  0  0
   -8.0589   -5.8872    6.4538 C   0  0  0  0  0  4           0  0  0
   -9.1247   -2.8470    3.5161 C   0  0  0  0  0  4           0  0  0
    1.9821   -1.2885    0.0000 C   0  0  0  0  0  4           0  0  0
    4.2726   -0.1111    4.6447 C   0  0  0  0  0  4           0  0  0
   -0.8327    0.0082    3.5369 C   0  0  0  0  0  4           0  0  0
    4.1846   -2.3905    2.6571 C   0  0  0  0  0  4           0  0  0
    3.1934   -0.2850    3.5840 C   0  0  0  0  0  4           0  0  0
    4.0234   -0.3526    1.2084 C   0  0  0  0  0  4           0  0  0
   -9.3687   -1.5838    2.7223 C   0  0  0  0  0  4           0  0  0
    4.5873   -3.5081    2.8297 C   0  0  0  0  0  4           0  0  0
    3.4957   -1.1152    0.0000 C   0  0  0  0  0  4           0  0  0
  1 14  1  0     0  0
  2 15  1  0     0  0
  3 16  1  0     0  0
  3 32  1  0     0  0
  4 17  1  0     0  0
  4 34  1  0     0  0
  5 31  2  0     0  0
  6 33  1  0     0  0
  7  8  1  0     0  0
  7 22  1  0     0  0
  8 19  2  0     0  0
  9 18  2  0     0  0
  9 20  1  0     0  0
 10 18  1  0     0  0
 10 21  2  0     0  0
 11 19  1  0     0  0
 11 20  1  0     0  0
 12 23  1  0     0  0
 12 31  1  0     0  0
 13 35  1  0     0  0
 13 36  1  0     0  0
 13 37  1  0     0  0
 14 15  1  0     0  0
 14 23  2  0     0  0
 15 25  2  0     0  0
 16 17  1  0     0  0
 16 26  2  0     0  0
 17 27  2  0     0  0
 19 28  1  0     0  0
 20 24  2  0     0  0
 21 24  1  0     0  0
 21 26  1  0     0  0
 22 28  2  0     0  0
 22 38  1  0     0  0
 23 29  1  0     0  0
 24 27  1  0     0  0
 25 30  1  0     0  0
 29 30  2  0     0  0
 31 38  1  0     0  0
 32 40  1  0     0  0
 33 36  1  0     0  0
 35 39  3  0     0  0
 37 40  1  0     0  0
M  END
> <standard_type>
pIC50

> <# Confs.>
25

> <canonical_smiles>
FC1=CC=CC(NC(CC2=CC(NC3=C(C=C(OC)C(OCCCN(CCO)C#C)=C4)C4=NC=N3)=NN2)=O)=C1F

> <standard_relation>
=

> <Publication_ID>
nan

> <predicted_activity_value>
7.853871964321762

> <actual_activity_value>
7.823908740944319

> <Compound>
26

> <standard_units>
nM

> hash
388421990724528612

$$$$
26_
XXILIB    08252103423D 0   0.00000     0.00000

 40 43  0     1  0            999 V2000
   -7.5171    2.1531    6.8399 F   0  0  0  0  0  1           0  0  0
   -7.0516    4.2582    8.4791 F   0  0  0  0  0  1           0  0  0
    1.3664    0.0000   -0.0000 O   0  0  0  0  0  2           0  0  0
   -0.0425    0.0084    2.3502 O   0  0  0  0  0  2           0  0  0
   -9.9024    3.4553    2.6553 O   0  0  0  0  0  2           0  0  0
    5.7450   -0.7562    3.8527 O   0  0  0  0  0  2           0  0  0
   -8.2473    1.2061    0.4204 N   0  0  0  0  0  3           0  0  0
   -7.0721    0.9211   -0.1600 N   0  0  0  0  0  3           0  0  0
   -4.7514   -0.2139   -1.6049 N   0  0  0  0  0  3           0  0  0
   -2.5604   -0.1961   -2.5756 N   0  0  0  0  0  3           0  0  0
   -5.0709   -0.0971    0.7542 N   0  0  0  0  0  3           0  0  0
   -8.8110    2.4361    4.4365 N   0  0  0  0  0  3           0  0  0
    5.4652    0.2177    1.1564 N   0  0  1  0  0  3           0  0  0
   -7.9320    3.3751    6.4739 C   0  0  0  0  0  4           0  0  0
   -7.6921    4.4529    7.3181 C   0  0  0  0  0  4           0  0  0
    0.0000    0.0000    0.0000 C   0  0  0  0  0  4           0  0  0
   -0.7456    0.0000    1.1788 C   0  0  0  0  0  4           0  0  0
   -3.8984   -0.2438   -2.6375 C   0  0  0  0  0  4           0  0  0
   -6.3460    0.3682    0.8240 C   0  0  0  0  0  4           0  0  0
   -4.2071   -0.1104   -0.3668 C   0  0  0  0  0  4           0  0  0
   -2.0188   -0.1185   -1.3532 C   0  0  0  0  0  4           0  0  0
   -8.3173    0.8627    1.7406 C   0  0  0  0  0  4           0  0  0
   -8.5929    3.5583    5.2581 C   0  0  0  0  0  4           0  0  0
   -2.8001   -0.0801   -0.1806 C   0  0  0  0  0  4           0  0  0
   -8.1094    5.7316    6.9680 C   0  0  0  0  0  4           0  0  0
   -0.6342   -0.0814   -1.2422 C   0  0  0  0  0  4           0  0  0
   -2.1409   -0.0300    1.0794 C   0  0  0  0  0  4           0  0  0
   -7.0903    0.3115    2.0327 C   0  0  0  0  0  4           0  0  0
   -9.0121    4.8458    4.9008 C   0  0  0  0  0  4           0  0  0
   -8.7706    5.9267    5.7561 C   0  0  0  0  0  4           0  0  0
   -9.4481    2.4542    3.2082 C   0  0  0  0  0  4           0  0  0
    1.9821    1.2885    0.0000 C   0  0  0  0  0  4           0  0  0
    6.7303   -1.0159    2.8602 C   0  0  0  0  0  4           0  0  0
   -0.8327    0.0082    3.5369 C   0  0  0  0  0  4           0  0  0
    6.2856    1.4271    1.1316 C   0  0  0  0  0  4           0  0  0
    6.0986   -1.0472    1.4745 C   0  0  0  0  0  4           0  0  0
    4.0234    0.3526    1.2084 C   0  0  0  0  0  4           0  0  0
   -9.5277    1.0869    2.5681 C   0  0  0  0  0  4           0  0  0
    6.9589    2.4206    1.1078 C   0  0  0  0  0  4           0  0  0
    3.4957    1.1152   -0.0000 C   0  0  0  0  0  4           0  0  0
  1 14  1  0     0  0
  2 15  1  0     0  0
  3 16  1  0     0  0
  3 32  1  0     0  0
  4 17  1  0     0  0
  4 34  1  0     0  0
  5 31  2  0     0  0
  6 33  1  0     0  0
  7  8  1  0     0  0
  7 22  1  0     0  0
  8 19  2  0     0  0
  9 18  2  0     0  0
  9 20  1  0     0  0
 10 18  1  0     0  0
 10 21  2  0     0  0
 11 19  1  0     0  0
 11 20  1  0     0  0
 12 23  1  0     0  0
 12 31  1  0     0  0
 13 35  1  0     0  0
 13 36  1  0     0  0
 13 37  1  0     0  0
 14 15  1  0     0  0
 14 23  2  0     0  0
 15 25  2  0     0  0
 16 17  1  0     0  0
 16 26  2  0     0  0
 17 27  2  0     0  0
 19 28  1  0     0  0
 20 24  2  0     0  0
 21 24  1  0     0  0
 21 26  1  0     0  0
 22 28  2  0     0  0
 22 38  1  0     0  0
 23 29  1  0     0  0
 24 27  1  0     0  0
 25 30  1  0     0  0
 29 30  2  0     0  0
 31 38  1  0     0  0
 32 40  1  0     0  0
 33 36  1  0     0  0
 35 39  3  0     0  0
 37 40  1  0     0  0
M  END
> <standard_type>
pIC50

> <# Confs.>
25

> <canonical_smiles>
FC1=CC=CC(NC(CC2=CC(NC3=C(C=C(OC)C(OCCCN(CCO)C#C)=C4)C4=NC=N3)=NN2)=O)=C1F

> <standard_relation>
=

> <Publication_ID>
nan

> <predicted_activity_value>
7.853871964321762

> <actual_activity_value>
7.823908740944319

> <Compound>
26

> <standard_units>
nM

> hash
388421990724528612

$$$$
26_
XXILIB    08252103423D 0   0.00000     0.00000

 40 43  0     1  0            999 V2000
   -7.3559   -1.8803    7.1141 F   0  0  0  0  0  1           0  0  0
   -6.6676   -3.7043    8.9940 F   0  0  0  0  0  1           0  0  0
    1.3664    0.0000    0.0000 O   0  0  0  0  0  2           0  0  0
   -0.0425    0.0084    2.3502 O   0  0  0  0  0  2           0  0  0
   -9.4484   -3.9539    3.0870 O   0  0  0  0  0  2           0  0  0
    6.1529    4.5838    2.2644 O   0  0  0  0  0  2           0  0  0
   -8.0704   -1.7928    0.5923 N   0  0  0  0  0  3           0  0  0
   -6.9321   -1.4415   -0.0240 N   0  0  0  0  0  3           0  0  0
   -4.7514   -0.2139   -1.6049 N   0  0  0  0  0  3           0  0  0
   -2.5604   -0.1961   -2.5756 N   0  0  0  0  0  3           0  0  0
   -5.0709   -0.0971    0.7542 N   0  0  0  0  0  3           0  0  0
   -8.5301   -2.6047    4.7419 N   0  0  0  0  0  3           0  0  0
    4.3569    2.3491    1.9868 N   0  0  1  0  0  3           0  0  0
   -7.5901   -3.1810    6.8843 C   0  0  0  0  0  4           0  0  0
   -7.2347   -4.1142    7.8511 C   0  0  0  0  0  4           0  0  0
   -0.0000    0.0000    0.0000 C   0  0  0  0  0  4           0  0  0
   -0.7456   -0.0000    1.1788 C   0  0  0  0  0  4           0  0  0
   -3.8984   -0.2438   -2.6375 C   0  0  0  0  0  4           0  0  0
   -6.2828   -0.6982    0.8854 C   0  0  0  0  0  4           0  0  0
   -4.2071   -0.1104   -0.3668 C   0  0  0  0  0  4           0  0  0
   -2.0188   -0.1185   -1.3532 C   0  0  0  0  0  4           0  0  0
   -8.1904   -1.3096    1.8642 C   0  0  0  0  0  4           0  0  0
   -8.1865   -3.5876    5.6896 C   0  0  0  0  0  4           0  0  0
   -2.8001   -0.0801   -0.1806 C   0  0  0  0  0  4           0  0  0
   -7.4638   -5.4693    7.6434 C   0  0  0  0  0  4           0  0  0
   -0.6342   -0.0814   -1.2422 C   0  0  0  0  0  4           0  0  0
   -2.1409   -0.0300    1.0794 C   0  0  0  0  0  4           0  0  0
   -7.0368   -0.5916    2.0846 C   0  0  0  0  0  4           0  0  0
   -8.4216   -4.9518    5.4783 C   0  0  0  0  0  4           0  0  0
   -8.0589   -5.8872    6.4538 C   0  0  0  0  0  4           0  0  0
   -9.1247   -2.8470    3.5161 C   0  0  0  0  0  4           0  0  0
    1.9821    1.1159    0.6443 C   0  0  0  0  0  4           0  0  0
    5.4787    4.0254    3.3856 C   0  0  0  0  0  4           0  0  0
   -0.8327    0.0082    3.5369 C   0  0  0  0  0  4           0  0  0
    5.1701    1.1945    2.3635 C   0  0  0  0  0  4           0  0  0
    4.1543    3.4054    2.9591 C   0  0  0  0  0  4           0  0  0
    4.0725    2.5753    0.5841 C   0  0  0  0  0  4           0  0  0
   -9.3687   -1.5838    2.7223 C   0  0  0  0  0  4           0  0  0
    5.8351    0.2442    2.6728 C   0  0  0  0  0  4           0  0  0
    3.3216    1.3980   -0.0245 C   0  0  0  0  0  4           0  0  0
  1 14  1  0     0  0
  2 15  1  0     0  0
  3 16  1  0     0  0
  3 32  1  0     0  0
  4 17  1  0     0  0
  4 34  1  0     0  0
  5 31  2  0     0  0
  6 33  1  0     0  0
  7  8  1  0     0  0
  7 22  1  0     0  0
  8 19  2  0     0  0
  9 18  2  0     0  0
  9 20  1  0     0  0
 10 18  1  0     0  0
 10 21  2  0     0  0
 11 19  1  0     0  0
 11 20  1  0     0  0
 12 23  1  0     0  0
 12 31  1  0     0  0
 13 35  1  0     0  0
 13 36  1  0     0  0
 13 37  1  0     0  0
 14 15  1  0     0  0
 14 23  2  0     0  0
 15 25  2  0     0  0
 16 17  1  0     0  0
 16 26  2  0     0  0
 17 27  2  0     0  0
 19 28  1  0     0  0
 20 24  2  0     0  0
 21 24  1  0     0  0
 21 26  1  0     0  0
 22 28  2  0     0  0
 22 38  1  0     0  0
 23 29  1  0     0  0
 24 27  1  0     0  0
 25 30  1  0     0  0
 29 30  2  0     0  0
 31 38  1  0     0  0
 32 40  1  0     0  0
 33 36  1  0     0  0
 35 39  3  0     0  0
 37 40  1  0     0  0
M  END
> <standard_type>
pIC50

> <# Confs.>
25

> <canonical_smiles>
FC1=CC=CC(NC(CC2=CC(NC3=C(C=C(OC)C(OCCCN(CCO)C#C)=C4)C4=NC=N3)=NN2)=O)=C1F

> <standard_relation>
=

> <Publication_ID>
nan

> <predicted_activity_value>
7.853871964321762

> <actual_activity_value>
7.823908740944319

> <Compound>
26

> <standard_units>
nM

> hash
388421990724528612

$$$$
26_
XXILIB    08252103423D 0   0.00000     0.00000

 40 43  0     1  0            999 V2000
   -9.4462   -2.7529    5.5136 F   0  0  0  0  0  1           0  0  0
  -10.6896   -5.1258    5.9116 F   0  0  0  0  0  1           0  0  0
    1.3664    0.0000   -0.0000 O   0  0  0  0  0  2           0  0  0
   -0.0425    0.0084    2.3502 O   0  0  0  0  0  2           0  0  0
  -11.2925   -0.2347    1.6218 O   0  0  0  0  0  2           0  0  0
    5.7450   -0.7562    3.8527 O   0  0  0  0  0  2           0  0  0
   -8.2473    1.2061    0.4204 N   0  0  0  0  0  3           0  0  0
   -7.0721    0.9211   -0.1600 N   0  0  0  0  0  3           0  0  0
   -4.7514   -0.2139   -1.6049 N   0  0  0  0  0  3           0  0  0
   -2.5604   -0.1961   -2.5756 N   0  0  0  0  0  3           0  0  0
   -5.0709   -0.0971    0.7542 N   0  0  0  0  0  3           0  0  0
  -10.1542   -1.0613    3.4721 N   0  0  0  0  0  3           0  0  0
    5.4652    0.2177    1.1564 N   0  0  1  0  0  3           0  0  0
  -10.4380   -3.1214    4.6890 C   0  0  0  0  0  4           0  0  0
  -11.0732   -4.3403    4.8958 C   0  0  0  0  0  4           0  0  0
    0.0000    0.0000    0.0000 C   0  0  0  0  0  4           0  0  0
   -0.7456    0.0000    1.1788 C   0  0  0  0  0  4           0  0  0
   -3.8984   -0.2438   -2.6375 C   0  0  0  0  0  4           0  0  0
   -6.3460    0.3682    0.8240 C   0  0  0  0  0  4           0  0  0
   -4.2071   -0.1104   -0.3668 C   0  0  0  0  0  4           0  0  0
   -2.0188   -0.1185   -1.3532 C   0  0  0  0  0  4           0  0  0
   -8.3173    0.8627    1.7406 C   0  0  0  0  0  4           0  0  0
  -10.8266   -2.2868    3.6398 C   0  0  0  0  0  4           0  0  0
   -2.8001   -0.0801   -0.1806 C   0  0  0  0  0  4           0  0  0
  -12.1041   -4.7511    4.0590 C   0  0  0  0  0  4           0  0  0
   -0.6342   -0.0814   -1.2422 C   0  0  0  0  0  4           0  0  0
   -2.1409   -0.0300    1.0794 C   0  0  0  0  0  4           0  0  0
   -7.0903    0.3115    2.0327 C   0  0  0  0  0  4           0  0  0
  -11.8669   -2.6962    2.7966 C   0  0  0  0  0  4           0  0  0
  -12.5008   -3.9258    3.0076 C   0  0  0  0  0  4           0  0  0
  -10.4214   -0.1295    2.4846 C   0  0  0  0  0  4           0  0  0
    1.9821    1.2885    0.0000 C   0  0  0  0  0  4           0  0  0
    6.7303   -1.0159    2.8602 C   0  0  0  0  0  4           0  0  0
   -0.8327    0.0082    3.5369 C   0  0  0  0  0  4           0  0  0
    6.2856    1.4271    1.1316 C   0  0  0  0  0  4           0  0  0
    6.0986   -1.0472    1.4745 C   0  0  0  0  0  4           0  0  0
    4.0234    0.3526    1.2084 C   0  0  0  0  0  4           0  0  0
   -9.5277    1.0869    2.5681 C   0  0  0  0  0  4           0  0  0
    6.9589    2.4206    1.1078 C   0  0  0  0  0  4           0  0  0
    3.4957    1.1152   -0.0000 C   0  0  0  0  0  4           0  0  0
  1 14  1  0     0  0
  2 15  1  0     0  0
  3 16  1  0     0  0
  3 32  1  0     0  0
  4 17  1  0     0  0
  4 34  1  0     0  0
  5 31  2  0     0  0
  6 33  1  0     0  0
  7  8  1  0     0  0
  7 22  1  0     0  0
  8 19  2  0     0  0
  9 18  2  0     0  0
  9 20  1  0     0  0
 10 18  1  0     0  0
 10 21  2  0     0  0
 11 19  1  0     0  0
 11 20  1  0     0  0
 12 23  1  0     0  0
 12 31  1  0     0  0
 13 35  1  0     0  0
 13 36  1  0     0  0
 13 37  1  0     0  0
 14 15  1  0     0  0
 14 23  2  0     0  0
 15 25  2  0     0  0
 16 17  1  0     0  0
 16 26  2  0     0  0
 17 27  2  0     0  0
 19 28  1  0     0  0
 20 24  2  0     0  0
 21 24  1  0     0  0
 21 26  1  0     0  0
 22 28  2  0     0  0
 22 38  1  0     0  0
 23 29  1  0     0  0
 24 27  1  0     0  0
 25 30  1  0     0  0
 29 30  2  0     0  0
 31 38  1  0     0  0
 32 40  1  0     0  0
 33 36  1  0     0  0
 35 39  3  0     0  0
 37 40  1  0     0  0
M  END
> <standard_type>
pIC50

> <# Confs.>
25

> <canonical_smiles>
FC1=CC=CC(NC(CC2=CC(NC3=C(C=C(OC)C(OCCCN(CCO)C#C)=C4)C4=NC=N3)=NN2)=O)=C1F

> <standard_relation>
=

> <Publication_ID>
nan

> <predicted_activity_value>
7.853871964321762

> <actual_activity_value>
7.823908740944319

> <Compound>
26

> <standard_units>
nM

> hash
388421990724528612

$$$$
26_
XXILIB    08252103423D 0   0.00000     0.00000

 40 43  0     1  0            999 V2000
   -9.7211    2.5967    5.1362 F   0  0  0  0  0  1           0  0  0
  -11.2345    4.8399    5.2488 F   0  0  0  0  0  1           0  0  0
    1.3664    0.0000    0.0000 O   0  0  0  0  0  2           0  0  0
   -0.0425    0.0084    2.3502 O   0  0  0  0  0  2           0  0  0
  -11.2776   -0.6091    1.6438 O   0  0  0  0  0  2           0  0  0
    5.3881   -0.5925   -4.1119 O   0  0  0  0  0  2           0  0  0
   -8.0704   -1.7928    0.5923 N   0  0  0  0  0  3           0  0  0
   -6.9321   -1.4415   -0.0240 N   0  0  0  0  0  3           0  0  0
   -4.7514   -0.2139   -1.6049 N   0  0  0  0  0  3           0  0  0
   -2.5604   -0.1961   -2.5756 N   0  0  0  0  0  3           0  0  0
   -5.0709   -0.0971    0.7542 N   0  0  0  0  0  3           0  0  0
  -10.2426    0.5749    3.3554 N   0  0  0  0  0  3           0  0  0
    3.6909    1.0313   -2.4447 N   0  0  1  0  0  3           0  0  0
  -10.7621    2.7295    4.3007 C   0  0  0  0  0  4           0  0  0
  -11.5371    3.8817    4.3620 C   0  0  0  0  0  4           0  0  0
   -0.0000    0.0000    0.0000 C   0  0  0  0  0  4           0  0  0
   -0.7456   -0.0000    1.1788 C   0  0  0  0  0  4           0  0  0
   -3.8984   -0.2438   -2.6375 C   0  0  0  0  0  4           0  0  0
   -6.2828   -0.6982    0.8854 C   0  0  0  0  0  4           0  0  0
   -4.2071   -0.1104   -0.3668 C   0  0  0  0  0  4           0  0  0
   -2.0188   -0.1185   -1.3532 C   0  0  0  0  0  4           0  0  0
   -8.1904   -1.3096    1.8642 C   0  0  0  0  0  4           0  0  0
  -11.0579    1.7225    3.3804 C   0  0  0  0  0  4           0  0  0
   -2.8001   -0.0801   -0.1806 C   0  0  0  0  0  4           0  0  0
  -12.6225    4.0497    3.5103 C   0  0  0  0  0  4           0  0  0
   -0.6342   -0.0814   -1.2422 C   0  0  0  0  0  4           0  0  0
   -2.1409   -0.0300    1.0794 C   0  0  0  0  0  4           0  0  0
   -7.0368   -0.5916    2.0846 C   0  0  0  0  0  4           0  0  0
  -12.1489    1.8898    2.5187 C   0  0  0  0  0  4           0  0  0
  -12.9275    3.0505    2.5869 C   0  0  0  0  0  4           0  0  0
  -10.4054   -0.5050    2.5056 C   0  0  0  0  0  4           0  0  0
    1.9821    1.2885    0.0000 C   0  0  0  0  0  4           0  0  0
    4.2726    0.1111   -4.6447 C   0  0  0  0  0  4           0  0  0
   -0.8327    0.0082    3.5369 C   0  0  0  0  0  4           0  0  0
    4.1846    2.3905   -2.6571 C   0  0  0  0  0  4           0  0  0
    3.1934    0.2850   -3.5840 C   0  0  0  0  0  4           0  0  0
    4.0234    0.3526   -1.2084 C   0  0  0  0  0  4           0  0  0
   -9.3687   -1.5838    2.7223 C   0  0  0  0  0  4           0  0  0
    4.5873    3.5081   -2.8297 C   0  0  0  0  0  4           0  0  0
    3.4957    1.1152   -0.0000 C   0  0  0  0  0  4           0  0  0
  1 14  1  0     0  0
  2 15  1  0     0  0
  3 16  1  0     0  0
  3 32  1  0     0  0
  4 17  1  0     0  0
  4 34  1  0     0  0
  5 31  2  0     0  0
  6 33  1  0     0  0
  7  8  1  0     0  0
  7 22  1  0     0  0
  8 19  2  0     0  0
  9 18  2  0     0  0
  9 20  1  0     0  0
 10 18  1  0     0  0
 10 21  2  0     0  0
 11 19  1  0     0  0
 11 20  1  0     0  0
 12 23  1  0     0  0
 12 31  1  0     0  0
 13 35  1  0     0  0
 13 36  1  0     0  0
 13 37  1  0     0  0
 14 15  1  0     0  0
 14 23  2  0     0  0
 15 25  2  0     0  0
 16 17  1  0     0  0
 16 26  2  0     0  0
 17 27  2  0     0  0
 19 28  1  0     0  0
 20 24  2  0     0  0
 21 24  1  0     0  0
 21 26  1  0     0  0
 22 28  2  0     0  0
 22 38  1  0     0  0
 23 29  1  0     0  0
 24 27  1  0     0  0
 25 30  1  0     0  0
 29 30  2  0     0  0
 31 38  1  0     0  0
 32 40  1  0     0  0
 33 36  1  0     0  0
 35 39  3  0     0  0
 37 40  1  0     0  0
M  END
> <standard_type>
pIC50

> <# Confs.>
25

> <canonical_smiles>
FC1=CC=CC(NC(CC2=CC(NC3=C(C=C(OC)C(OCCCN(CCO)C#C)=C4)C4=NC=N3)=NN2)=O)=C1F

> <standard_relation>
=

> <Publication_ID>
nan

> <predicted_activity_value>
7.853871964321762

> <actual_activity_value>
7.823908740944319

> <Compound>
26

> <standard_units>
nM

> hash
388421990724528612

$$$$
26_
XXILIB    08252103423D 0   0.00000     0.00000

 40 43  0     1  0            999 V2000
   -7.5171    2.1531    6.8399 F   0  0  0  0  0  1           0  0  0
   -7.0516    4.2582    8.4791 F   0  0  0  0  0  1           0  0  0
    1.3664    0.0000   -0.0000 O   0  0  0  0  0  2           0  0  0
   -0.0425    0.0084    2.3502 O   0  0  0  0  0  2           0  0  0
   -9.9024    3.4553    2.6553 O   0  0  0  0  0  2           0  0  0
    5.4554   -5.5419    1.2715 O   0  0  0  0  0  2           0  0  0
   -8.2473    1.2061    0.4204 N   0  0  0  0  0  3           0  0  0
   -7.0721    0.9211   -0.1600 N   0  0  0  0  0  3           0  0  0
   -4.7514   -0.2139   -1.6049 N   0  0  0  0  0  3           0  0  0
   -2.5604   -0.1961   -2.5756 N   0  0  0  0  0  3           0  0  0
   -5.0709   -0.0971    0.7542 N   0  0  0  0  0  3           0  0  0
   -8.8110    2.4361    4.4365 N   0  0  0  0  0  3           0  0  0
    3.3018   -3.7984    0.4848 N   0  0  1  0  0  3           0  0  0
   -7.9320    3.3751    6.4739 C   0  0  0  0  0  4           0  0  0
   -7.6921    4.4529    7.3181 C   0  0  0  0  0  4           0  0  0
    0.0000    0.0000    0.0000 C   0  0  0  0  0  4           0  0  0
   -0.7456    0.0000    1.1788 C   0  0  0  0  0  4           0  0  0
   -3.8984   -0.2438   -2.6375 C   0  0  0  0  0  4           0  0  0
   -6.3460    0.3682    0.8240 C   0  0  0  0  0  4           0  0  0
   -4.2071   -0.1104   -0.3668 C   0  0  0  0  0  4           0  0  0
   -2.0188   -0.1185   -1.3532 C   0  0  0  0  0  4           0  0  0
   -8.3173    0.8627    1.7406 C   0  0  0  0  0  4           0  0  0
   -8.5929    3.5583    5.2581 C   0  0  0  0  0  4           0  0  0
   -2.8001   -0.0801   -0.1806 C   0  0  0  0  0  4           0  0  0
   -8.1094    5.7316    6.9680 C   0  0  0  0  0  4           0  0  0
   -0.6342   -0.0814   -1.2422 C   0  0  0  0  0  4           0  0  0
   -2.1409   -0.0300    1.0794 C   0  0  0  0  0  4           0  0  0
   -7.0903    0.3115    2.0327 C   0  0  0  0  0  4           0  0  0
   -9.0121    4.8458    4.9008 C   0  0  0  0  0  4           0  0  0
   -8.7706    5.9267    5.7561 C   0  0  0  0  0  4           0  0  0
   -9.4481    2.4542    3.2082 C   0  0  0  0  0  4           0  0  0
    1.9821   -1.1159    0.6443 C   0  0  0  0  0  4           0  0  0
    4.0937   -5.9279    1.4141 C   0  0  0  0  0  4           0  0  0
   -0.8327    0.0082    3.5369 C   0  0  0  0  0  4           0  0  0
    2.9201   -4.2852   -0.8395 C   0  0  0  0  0  4           0  0  0
    3.2089   -4.7041    1.6132 C   0  0  0  0  0  4           0  0  0
    4.0725   -2.5753    0.5841 C   0  0  0  0  0  4           0  0  0
   -9.5277    1.0869    2.5681 C   0  0  0  0  0  4           0  0  0
    2.6038   -4.6828   -1.9271 C   0  0  0  0  0  4           0  0  0
    3.3216   -1.3980   -0.0245 C   0  0  0  0  0  4           0  0  0
  1 14  1  0     0  0
  2 15  1  0     0  0
  3 16  1  0     0  0
  3 32  1  0     0  0
  4 17  1  0     0  0
  4 34  1  0     0  0
  5 31  2  0     0  0
  6 33  1  0     0  0
  7  8  1  0     0  0
  7 22  1  0     0  0
  8 19  2  0     0  0
  9 18  2  0     0  0
  9 20  1  0     0  0
 10 18  1  0     0  0
 10 21  2  0     0  0
 11 19  1  0     0  0
 11 20  1  0     0  0
 12 23  1  0     0  0
 12 31  1  0     0  0
 13 35  1  0     0  0
 13 36  1  0     0  0
 13 37  1  0     0  0
 14 15  1  0     0  0
 14 23  2  0     0  0
 15 25  2  0     0  0
 16 17  1  0     0  0
 16 26  2  0     0  0
 17 27  2  0     0  0
 19 28  1  0     0  0
 20 24  2  0     0  0
 21 24  1  0     0  0
 21 26  1  0     0  0
 22 28  2  0     0  0
 22 38  1  0     0  0
 23 29  1  0     0  0
 24 27  1  0     0  0
 25 30  1  0     0  0
 29 30  2  0     0  0
 31 38  1  0     0  0
 32 40  1  0     0  0
 33 36  1  0     0  0
 35 39  3  0     0  0
 37 40  1  0     0  0
M  END
> <standard_type>
pIC50

> <# Confs.>
25

> <canonical_smiles>
FC1=CC=CC(NC(CC2=CC(NC3=C(C=C(OC)C(OCCCN(CCO)C#C)=C4)C4=NC=N3)=NN2)=O)=C1F

> <standard_relation>
=

> <Publication_ID>
nan

> <predicted_activity_value>
7.853871964321762

> <actual_activity_value>
7.823908740944319

> <Compound>
26

> <standard_units>
nM

> hash
388421990724528612

$$$$
26_
XXILIB    08252103423D 0   0.00000     0.00000

 40 43  0     1  0            999 V2000
   -9.4462   -2.7529    5.5136 F   0  0  0  0  0  1           0  0  0
  -10.6896   -5.1258    5.9116 F   0  0  0  0  0  1           0  0  0
    1.3664    0.0000   -0.0000 O   0  0  0  0  0  2           0  0  0
   -0.0425    0.0084    2.3502 O   0  0  0  0  0  2           0  0  0
  -11.2925   -0.2347    1.6218 O   0  0  0  0  0  2           0  0  0
    5.4554   -5.5419    1.2715 O   0  0  0  0  0  2           0  0  0
   -8.2473    1.2061    0.4204 N   0  0  0  0  0  3           0  0  0
   -7.0721    0.9211   -0.1600 N   0  0  0  0  0  3           0  0  0
   -4.7514   -0.2139   -1.6049 N   0  0  0  0  0  3           0  0  0
   -2.5604   -0.1961   -2.5756 N   0  0  0  0  0  3           0  0  0
   -5.0709   -0.0971    0.7542 N   0  0  0  0  0  3           0  0  0
  -10.1542   -1.0613    3.4721 N   0  0  0  0  0  3           0  0  0
    3.3018   -3.7984    0.4848 N   0  0  1  0  0  3           0  0  0
  -10.4380   -3.1214    4.6890 C   0  0  0  0  0  4           0  0  0
  -11.0732   -4.3403    4.8958 C   0  0  0  0  0  4           0  0  0
    0.0000    0.0000    0.0000 C   0  0  0  0  0  4           0  0  0
   -0.7456    0.0000    1.1788 C   0  0  0  0  0  4           0  0  0
   -3.8984   -0.2438   -2.6375 C   0  0  0  0  0  4           0  0  0
   -6.3460    0.3682    0.8240 C   0  0  0  0  0  4           0  0  0
   -4.2071   -0.1104   -0.3668 C   0  0  0  0  0  4           0  0  0
   -2.0188   -0.1185   -1.3532 C   0  0  0  0  0  4           0  0  0
   -8.3173    0.8627    1.7406 C   0  0  0  0  0  4           0  0  0
  -10.8266   -2.2868    3.6398 C   0  0  0  0  0  4           0  0  0
   -2.8001   -0.0801   -0.1806 C   0  0  0  0  0  4           0  0  0
  -12.1041   -4.7511    4.0590 C   0  0  0  0  0  4           0  0  0
   -0.6342   -0.0814   -1.2422 C   0  0  0  0  0  4           0  0  0
   -2.1409   -0.0300    1.0794 C   0  0  0  0  0  4           0  0  0
   -7.0903    0.3115    2.0327 C   0  0  0  0  0  4           0  0  0
  -11.8669   -2.6962    2.7966 C   0  0  0  0  0  4           0  0  0
  -12.5008   -3.9258    3.0076 C   0  0  0  0  0  4           0  0  0
  -10.4214   -0.1295    2.4846 C   0  0  0  0  0  4           0  0  0
    1.9821   -1.1159    0.6443 C   0  0  0  0  0  4           0  0  0
    4.0937   -5.9279    1.4141 C   0  0  0  0  0  4           0  0  0
   -0.8327    0.0082    3.5369 C   0  0  0  0  0  4           0  0  0
    2.9201   -4.2852   -0.8395 C   0  0  0  0  0  4           0  0  0
    3.2089   -4.7041    1.6132 C   0  0  0  0  0  4           0  0  0
    4.0725   -2.5753    0.5841 C   0  0  0  0  0  4           0  0  0
   -9.5277    1.0869    2.5681 C   0  0  0  0  0  4           0  0  0
    2.6038   -4.6828   -1.9271 C   0  0  0  0  0  4           0  0  0
    3.3216   -1.3980   -0.0245 C   0  0  0  0  0  4           0  0  0
  1 14  1  0     0  0
  2 15  1  0     0  0
  3 16  1  0     0  0
  3 32  1  0     0  0
  4 17  1  0     0  0
  4 34  1  0     0  0
  5 31  2  0     0  0
  6 33  1  0     0  0
  7  8  1  0     0  0
  7 22  1  0     0  0
  8 19  2  0     0  0
  9 18  2  0     0  0
  9 20  1  0     0  0
 10 18  1  0     0  0
 10 21  2  0     0  0
 11 19  1  0     0  0
 11 20  1  0     0  0
 12 23  1  0     0  0
 12 31  1  0     0  0
 13 35  1  0     0  0
 13 36  1  0     0  0
 13 37  1  0     0  0
 14 15  1  0     0  0
 14 23  2  0     0  0
 15 25  2  0     0  0
 16 17  1  0     0  0
 16 26  2  0     0  0
 17 27  2  0     0  0
 19 28  1  0     0  0
 20 24  2  0     0  0
 21 24  1  0     0  0
 21 26  1  0     0  0
 22 28  2  0     0  0
 22 38  1  0     0  0
 23 29  1  0     0  0
 24 27  1  0     0  0
 25 30  1  0     0  0
 29 30  2  0     0  0
 31 38  1  0     0  0
 32 40  1  0     0  0
 33 36  1  0     0  0
 35 39  3  0     0  0
 37 40  1  0     0  0
M  END
> <standard_type>
pIC50

> <# Confs.>
25

> <canonical_smiles>
FC1=CC=CC(NC(CC2=CC(NC3=C(C=C(OC)C(OCCCN(CCO)C#C)=C4)C4=NC=N3)=NN2)=O)=C1F

> <standard_relation>
=

> <Publication_ID>
nan

> <predicted_activity_value>
7.853871964321762

> <actual_activity_value>
7.823908740944319

> <Compound>
26

> <standard_units>
nM

> hash
388421990724528612

$$$$
26_
XXILIB    08252103423D 0   0.00000     0.00000

 40 43  0     1  0            999 V2000
   -7.5171    2.1531    6.8399 F   0  0  0  0  0  1           0  0  0
   -7.0516    4.2582    8.4791 F   0  0  0  0  0  1           0  0  0
    1.3664   -0.0000   -0.0000 O   0  0  0  0  0  2           0  0  0
   -0.0425    0.0084    2.3502 O   0  0  0  0  0  2           0  0  0
   -9.9024    3.4553    2.6553 O   0  0  0  0  0  2           0  0  0
    5.3881    0.5925    4.1119 O   0  0  0  0  0  2           0  0  0
   -8.2473    1.2061    0.4204 N   0  0  0  0  0  3           0  0  0
   -7.0721    0.9211   -0.1600 N   0  0  0  0  0  3           0  0  0
   -4.7514   -0.2139   -1.6049 N   0  0  0  0  0  3           0  0  0
   -2.5604   -0.1961   -2.5756 N   0  0  0  0  0  3           0  0  0
   -5.0709   -0.0971    0.7542 N   0  0  0  0  0  3           0  0  0
   -8.8110    2.4361    4.4365 N   0  0  0  0  0  3           0  0  0
    3.6909   -1.0313    2.4447 N   0  0  1  0  0  3           0  0  0
   -7.9320    3.3751    6.4739 C   0  0  0  0  0  4           0  0  0
   -7.6921    4.4529    7.3181 C   0  0  0  0  0  4           0  0  0
    0.0000    0.0000    0.0000 C   0  0  0  0  0  4           0  0  0
   -0.7456    0.0000    1.1788 C   0  0  0  0  0  4           0  0  0
   -3.8984   -0.2438   -2.6375 C   0  0  0  0  0  4           0  0  0
   -6.3460    0.3682    0.8240 C   0  0  0  0  0  4           0  0  0
   -4.2071   -0.1104   -0.3668 C   0  0  0  0  0  4           0  0  0
   -2.0188   -0.1185   -1.3532 C   0  0  0  0  0  4           0  0  0
   -8.3173    0.8627    1.7406 C   0  0  0  0  0  4           0  0  0
   -8.5929    3.5583    5.2581 C   0  0  0  0  0  4           0  0  0
   -2.8001   -0.0801   -0.1806 C   0  0  0  0  0  4           0  0  0
   -8.1094    5.7316    6.9680 C   0  0  0  0  0  4           0  0  0
   -0.6342   -0.0814   -1.2422 C   0  0  0  0  0  4           0  0  0
   -2.1409   -0.0300    1.0794 C   0  0  0  0  0  4           0  0  0
   -7.0903    0.3115    2.0327 C   0  0  0  0  0  4           0  0  0
   -9.0121    4.8458    4.9008 C   0  0  0  0  0  4           0  0  0
   -8.7706    5.9267    5.7561 C   0  0  0  0  0  4           0  0  0
   -9.4481    2.4542    3.2082 C   0  0  0  0  0  4           0  0  0
    1.9821   -1.2885    0.0000 C   0  0  0  0  0  4           0  0  0
    4.2726   -0.1111    4.6447 C   0  0  0  0  0  4           0  0  0
   -0.8327    0.0082    3.5369 C   0  0  0  0  0  4           0  0  0
    4.1846   -2.3905    2.6571 C   0  0  0  0  0  4           0  0  0
    3.1934   -0.2850    3.5840 C   0  0  0  0  0  4           0  0  0
    4.0234   -0.3526    1.2084 C   0  0  0  0  0  4           0  0  0
   -9.5277    1.0869    2.5681 C   0  0  0  0  0  4           0  0  0
    4.5873   -3.5081    2.8297 C   0  0  0  0  0  4           0  0  0
    3.4957   -1.1152    0.0000 C   0  0  0  0  0  4           0  0  0
  1 14  1  0     0  0
  2 15  1  0     0  0
  3 16  1  0     0  0
  3 32  1  0     0  0
  4 17  1  0     0  0
  4 34  1  0     0  0
  5 31  2  0     0  0
  6 33  1  0     0  0
  7  8  1  0     0  0
  7 22  1  0     0  0
  8 19  2  0     0  0
  9 18  2  0     0  0
  9 20  1  0     0  0
 10 18  1  0     0  0
 10 21  2  0     0  0
 11 19  1  0     0  0
 11 20  1  0     0  0
 12 23  1  0     0  0
 12 31  1  0     0  0
 13 35  1  0     0  0
 13 36  1  0     0  0
 13 37  1  0     0  0
 14 15  1  0     0  0
 14 23  2  0     0  0
 15 25  2  0     0  0
 16 17  1  0     0  0
 16 26  2  0     0  0
 17 27  2  0     0  0
 19 28  1  0     0  0
 20 24  2  0     0  0
 21 24  1  0     0  0
 21 26  1  0     0  0
 22 28  2  0     0  0
 22 38  1  0     0  0
 23 29  1  0     0  0
 24 27  1  0     0  0
 25 30  1  0     0  0
 29 30  2  0     0  0
 31 38  1  0     0  0
 32 40  1  0     0  0
 33 36  1  0     0  0
 35 39  3  0     0  0
 37 40  1  0     0  0
M  END
> <standard_type>
pIC50

> <# Confs.>
25

> <canonical_smiles>
FC1=CC=CC(NC(CC2=CC(NC3=C(C=C(OC)C(OCCCN(CCO)C#C)=C4)C4=NC=N3)=NN2)=O)=C1F

> <standard_relation>
=

> <Publication_ID>
nan

> <predicted_activity_value>
7.853871964321762

> <actual_activity_value>
7.823908740944319

> <Compound>
26

> <standard_units>
nM

> hash
388421990724528612

$$$$
26_
XXILIB    08252103423D 0   0.00000     0.00000

 40 43  0     1  0            999 V2000
   -9.4462   -2.7529    5.5136 F   0  0  0  0  0  1           0  0  0
  -10.6896   -5.1258    5.9116 F   0  0  0  0  0  1           0  0  0
    1.3664   -0.0000   -0.0000 O   0  0  0  0  0  2           0  0  0
   -0.0425    0.0084    2.3502 O   0  0  0  0  0  2           0  0  0
  -11.2925   -0.2347    1.6218 O   0  0  0  0  0  2           0  0  0
    5.3881    0.5925    4.1119 O   0  0  0  0  0  2           0  0  0
   -8.2473    1.2061    0.4204 N   0  0  0  0  0  3           0  0  0
   -7.0721    0.9211   -0.1600 N   0  0  0  0  0  3           0  0  0
   -4.7514   -0.2139   -1.6049 N   0  0  0  0  0  3           0  0  0
   -2.5604   -0.1961   -2.5756 N   0  0  0  0  0  3           0  0  0
   -5.0709   -0.0971    0.7542 N   0  0  0  0  0  3           0  0  0
  -10.1542   -1.0613    3.4721 N   0  0  0  0  0  3           0  0  0
    3.6909   -1.0313    2.4447 N   0  0  1  0  0  3           0  0  0
  -10.4380   -3.1214    4.6890 C   0  0  0  0  0  4           0  0  0
  -11.0732   -4.3403    4.8958 C   0  0  0  0  0  4           0  0  0
    0.0000    0.0000    0.0000 C   0  0  0  0  0  4           0  0  0
   -0.7456    0.0000    1.1788 C   0  0  0  0  0  4           0  0  0
   -3.8984   -0.2438   -2.6375 C   0  0  0  0  0  4           0  0  0
   -6.3460    0.3682    0.8240 C   0  0  0  0  0  4           0  0  0
   -4.2071   -0.1104   -0.3668 C   0  0  0  0  0  4           0  0  0
   -2.0188   -0.1185   -1.3532 C   0  0  0  0  0  4           0  0  0
   -8.3173    0.8627    1.7406 C   0  0  0  0  0  4           0  0  0
  -10.8266   -2.2868    3.6398 C   0  0  0  0  0  4           0  0  0
   -2.8001   -0.0801   -0.1806 C   0  0  0  0  0  4           0  0  0
  -12.1041   -4.7511    4.0590 C   0  0  0  0  0  4           0  0  0
   -0.6342   -0.0814   -1.2422 C   0  0  0  0  0  4           0  0  0
   -2.1409   -0.0300    1.0794 C   0  0  0  0  0  4           0  0  0
   -7.0903    0.3115    2.0327 C   0  0  0  0  0  4           0  0  0
  -11.8669   -2.6962    2.7966 C   0  0  0  0  0  4           0  0  0
  -12.5008   -3.9258    3.0076 C   0  0  0  0  0  4           0  0  0
  -10.4214   -0.1295    2.4846 C   0  0  0  0  0  4           0  0  0
    1.9821   -1.2885    0.0000 C   0  0  0  0  0  4           0  0  0
    4.2726   -0.1111    4.6447 C   0  0  0  0  0  4           0  0  0
   -0.8327    0.0082    3.5369 C   0  0  0  0  0  4           0  0  0
    4.1846   -2.3905    2.6571 C   0  0  0  0  0  4           0  0  0
    3.1934   -0.2850    3.5840 C   0  0  0  0  0  4           0  0  0
    4.0234   -0.3526    1.2084 C   0  0  0  0  0  4           0  0  0
   -9.5277    1.0869    2.5681 C   0  0  0  0  0  4           0  0  0
    4.5873   -3.5081    2.8297 C   0  0  0  0  0  4           0  0  0
    3.4957   -1.1152    0.0000 C   0  0  0  0  0  4           0  0  0
  1 14  1  0     0  0
  2 15  1  0     0  0
  3 16  1  0     0  0
  3 32  1  0     0  0
  4 17  1  0     0  0
  4 34  1  0     0  0
  5 31  2  0     0  0
  6 33  1  0     0  0
  7  8  1  0     0  0
  7 22  1  0     0  0
  8 19  2  0     0  0
  9 18  2  0     0  0
  9 20  1  0     0  0
 10 18  1  0     0  0
 10 21  2  0     0  0
 11 19  1  0     0  0
 11 20  1  0     0  0
 12 23  1  0     0  0
 12 31  1  0     0  0
 13 35  1  0     0  0
 13 36  1  0     0  0
 13 37  1  0     0  0
 14 15  1  0     0  0
 14 23  2  0     0  0
 15 25  2  0     0  0
 16 17  1  0     0  0
 16 26  2  0     0  0
 17 27  2  0     0  0
 19 28  1  0     0  0
 20 24  2  0     0  0
 21 24  1  0     0  0
 21 26  1  0     0  0
 22 28  2  0     0  0
 22 38  1  0     0  0
 23 29  1  0     0  0
 24 27  1  0     0  0
 25 30  1  0     0  0
 29 30  2  0     0  0
 31 38  1  0     0  0
 32 40  1  0     0  0
 33 36  1  0     0  0
 35 39  3  0     0  0
 37 40  1  0     0  0
M  END
> <standard_type>
pIC50

> <# Confs.>
25

> <canonical_smiles>
FC1=CC=CC(NC(CC2=CC(NC3=C(C=C(OC)C(OCCCN(CCO)C#C)=C4)C4=NC=N3)=NN2)=O)=C1F

> <standard_relation>
=

> <Publication_ID>
nan

> <predicted_activity_value>
7.853871964321762

> <actual_activity_value>
7.823908740944319

> <Compound>
26

> <standard_units>
nM

> hash
388421990724528612

$$$$
26_
XXILIB    08252103423D 0   0.00000     0.00000

 40 43  0     1  0            999 V2000
   -7.3559   -1.8803    7.1141 F   0  0  0  0  0  1           0  0  0
   -6.6676   -3.7043    8.9940 F   0  0  0  0  0  1           0  0  0
    1.3664    0.0000   -0.0000 O   0  0  0  0  0  2           0  0  0
   -0.0425    0.0084    2.3502 O   0  0  0  0  0  2           0  0  0
   -9.4484   -3.9539    3.0870 O   0  0  0  0  0  2           0  0  0
    6.7736    1.8959    0.7747 O   0  0  0  0  0  2           0  0  0
   -8.0704   -1.7928    0.5923 N   0  0  0  0  0  3           0  0  0
   -6.9321   -1.4415   -0.0240 N   0  0  0  0  0  3           0  0  0
   -4.7514   -0.2139   -1.6049 N   0  0  0  0  0  3           0  0  0
   -2.5604   -0.1961   -2.5756 N   0  0  0  0  0  3           0  0  0
   -5.0709   -0.0971    0.7542 N   0  0  0  0  0  3           0  0  0
   -8.5301   -2.6047    4.7419 N   0  0  0  0  0  3           0  0  0
    4.5940    0.1260    1.4178 N   0  0  1  0  0  3           0  0  0
   -7.5901   -3.1810    6.8843 C   0  0  0  0  0  4           0  0  0
   -7.2347   -4.1142    7.8511 C   0  0  0  0  0  4           0  0  0
   -0.0000    0.0000    0.0000 C   0  0  0  0  0  4           0  0  0
   -0.7456   -0.0000    1.1788 C   0  0  0  0  0  4           0  0  0
   -3.8984   -0.2438   -2.6375 C   0  0  0  0  0  4           0  0  0
   -6.2828   -0.6982    0.8854 C   0  0  0  0  0  4           0  0  0
   -4.2071   -0.1104   -0.3668 C   0  0  0  0  0  4           0  0  0
   -2.0188   -0.1185   -1.3532 C   0  0  0  0  0  4           0  0  0
   -8.1904   -1.3096    1.8642 C   0  0  0  0  0  4           0  0  0
   -8.1865   -3.5876    5.6896 C   0  0  0  0  0  4           0  0  0
   -2.8001   -0.0801   -0.1806 C   0  0  0  0  0  4           0  0  0
   -7.4638   -5.4693    7.6434 C   0  0  0  0  0  4           0  0  0
   -0.6342   -0.0814   -1.2422 C   0  0  0  0  0  4           0  0  0
   -2.1409   -0.0300    1.0794 C   0  0  0  0  0  4           0  0  0
   -7.0368   -0.5916    2.0846 C   0  0  0  0  0  4           0  0  0
   -8.4216   -4.9518    5.4783 C   0  0  0  0  0  4           0  0  0
   -8.0589   -5.8872    6.4538 C   0  0  0  0  0  4           0  0  0
   -9.1247   -2.8470    3.5161 C   0  0  0  0  0  4           0  0  0
    1.9821   -1.1159    0.6443 C   0  0  0  0  0  4           0  0  0
    6.0568    2.0098    1.9981 C   0  0  0  0  0  4           0  0  0
   -0.8327    0.0082    3.5369 C   0  0  0  0  0  4           0  0  0
    5.2005   -0.8773    2.2906 C   0  0  0  0  0  4           0  0  0
    4.6258    1.5164    1.8276 C   0  0  0  0  0  4           0  0  0
    4.2971   -0.2302    0.0449 C   0  0  0  0  0  4           0  0  0
   -9.3687   -1.5838    2.7223 C   0  0  0  0  0  4           0  0  0
    5.6954   -1.7027    3.0081 C   0  0  0  0  0  4           0  0  0
    3.3216   -1.3980   -0.0245 C   0  0  0  0  0  4           0  0  0
  1 14  1  0     0  0
  2 15  1  0     0  0
  3 16  1  0     0  0
  3 32  1  0     0  0
  4 17  1  0     0  0
  4 34  1  0     0  0
  5 31  2  0     0  0
  6 33  1  0     0  0
  7  8  1  0     0  0
  7 22  1  0     0  0
  8 19  2  0     0  0
  9 18  2  0     0  0
  9 20  1  0     0  0
 10 18  1  0     0  0
 10 21  2  0     0  0
 11 19  1  0     0  0
 11 20  1  0     0  0
 12 23  1  0     0  0
 12 31  1  0     0  0
 13 35  1  0     0  0
 13 36  1  0     0  0
 13 37  1  0     0  0
 14 15  1  0     0  0
 14 23  2  0     0  0
 15 25  2  0     0  0
 16 17  1  0     0  0
 16 26  2  0     0  0
 17 27  2  0     0  0
 19 28  1  0     0  0
 20 24  2  0     0  0
 21 24  1  0     0  0
 21 26  1  0     0  0
 22 28  2  0     0  0
 22 38  1  0     0  0
 23 29  1  0     0  0
 24 27  1  0     0  0
 25 30  1  0     0  0
 29 30  2  0     0  0
 31 38  1  0     0  0
 32 40  1  0     0  0
 33 36  1  0     0  0
 35 39  3  0     0  0
 37 40  1  0     0  0
M  END
> <standard_type>
pIC50

> <# Confs.>
25

> <canonical_smiles>
FC1=CC=CC(NC(CC2=CC(NC3=C(C=C(OC)C(OCCCN(CCO)C#C)=C4)C4=NC=N3)=NN2)=O)=C1F

> <standard_relation>
=

> <Publication_ID>
nan

> <predicted_activity_value>
7.853871964321762

> <actual_activity_value>
7.823908740944319

> <Compound>
26

> <standard_units>
nM

> hash
388421990724528612

$$$$
26_
XXILIB    08252103423D 0   0.00000     0.00000

 40 43  0     1  0            999 V2000
  -11.0992    1.4589    6.0652 F   0  0  0  0  0  1           0  0  0
  -12.8517    3.5052    6.3415 F   0  0  0  0  0  1           0  0  0
    1.3664   -0.0000   -0.0000 O   0  0  0  0  0  2           0  0  0
   -0.0425    0.0084    2.3502 O   0  0  0  0  0  2           0  0  0
  -10.9053   -0.3003    1.4000 O   0  0  0  0  0  2           0  0  0
    3.0635    3.2003   -4.5067 O   0  0  0  0  0  2           0  0  0
   -8.0704   -1.7928    0.5923 N   0  0  0  0  0  3           0  0  0
   -6.9321   -1.4415   -0.0240 N   0  0  0  0  0  3           0  0  0
   -4.7514   -0.2139   -1.6049 N   0  0  0  0  0  3           0  0  0
   -2.5604   -0.1961   -2.5756 N   0  0  0  0  0  3           0  0  0
   -5.0709   -0.0971    0.7542 N   0  0  0  0  0  3           0  0  0
  -10.6944    0.2019    3.6596 N   0  0  0  0  0  3           0  0  0
    2.3882    2.9040   -1.7223 N   0  0  1  0  0  3           0  0  0
  -11.7975    1.8746    4.9979 C   0  0  0  0  0  4           0  0  0
  -12.6966    2.9244    5.1437 C   0  0  0  0  0  4           0  0  0
   -0.0000    0.0000    0.0000 C   0  0  0  0  0  4           0  0  0
   -0.7456   -0.0000    1.1788 C   0  0  0  0  0  4           0  0  0
   -3.8984   -0.2438   -2.6375 C   0  0  0  0  0  4           0  0  0
   -6.2828   -0.6982    0.8854 C   0  0  0  0  0  4           0  0  0
   -4.2071   -0.1104   -0.3668 C   0  0  0  0  0  4           0  0  0
   -2.0188   -0.1185   -1.3532 C   0  0  0  0  0  4           0  0  0
   -8.1904   -1.3096    1.8642 C   0  0  0  0  0  4           0  0  0
  -11.6178    1.2601    3.7575 C   0  0  0  0  0  4           0  0  0
   -2.8001   -0.0801   -0.1806 C   0  0  0  0  0  4           0  0  0
  -13.4353    3.3784    4.0575 C   0  0  0  0  0  4           0  0  0
   -0.6342   -0.0814   -1.2422 C   0  0  0  0  0  4           0  0  0
   -2.1409   -0.0300    1.0794 C   0  0  0  0  0  4           0  0  0
   -7.0368   -0.5916    2.0846 C   0  0  0  0  0  4           0  0  0
  -12.3583    1.7170    2.6603 C   0  0  0  0  0  4           0  0  0
  -13.2643    2.7723    2.8135 C   0  0  0  0  0  4           0  0  0
  -10.4054   -0.5050    2.5056 C   0  0  0  0  0  4           0  0  0
    1.9821    1.1159    0.6443 C   0  0  0  0  0  4           0  0  0
    1.8659    3.7469   -3.9677 C   0  0  0  0  0  4           0  0  0
   -0.8327    0.0082    3.5369 C   0  0  0  0  0  4           0  0  0
    2.8030    4.1706   -1.1223 C   0  0  0  0  0  4           0  0  0
    1.3921    2.9255   -2.7757 C   0  0  0  0  0  4           0  0  0
    3.2068    1.7278   -1.5072 C   0  0  0  0  0  4           0  0  0
   -9.3687   -1.5838    2.7223 C   0  0  0  0  0  4           0  0  0
    3.1422    5.2098   -0.6265 C   0  0  0  0  0  4           0  0  0
    3.3216    1.3980   -0.0245 C   0  0  0  0  0  4           0  0  0
  1 14  1  0     0  0
  2 15  1  0     0  0
  3 16  1  0     0  0
  3 32  1  0     0  0
  4 17  1  0     0  0
  4 34  1  0     0  0
  5 31  2  0     0  0
  6 33  1  0     0  0
  7  8  1  0     0  0
  7 22  1  0     0  0
  8 19  2  0     0  0
  9 18  2  0     0  0
  9 20  1  0     0  0
 10 18  1  0     0  0
 10 21  2  0     0  0
 11 19  1  0     0  0
 11 20  1  0     0  0
 12 23  1  0     0  0
 12 31  1  0     0  0
 13 35  1  0     0  0
 13 36  1  0     0  0
 13 37  1  0     0  0
 14 15  1  0     0  0
 14 23  2  0     0  0
 15 25  2  0     0  0
 16 17  1  0     0  0
 16 26  2  0     0  0
 17 27  2  0     0  0
 19 28  1  0     0  0
 20 24  2  0     0  0
 21 24  1  0     0  0
 21 26  1  0     0  0
 22 28  2  0     0  0
 22 38  1  0     0  0
 23 29  1  0     0  0
 24 27  1  0     0  0
 25 30  1  0     0  0
 29 30  2  0     0  0
 31 38  1  0     0  0
 32 40  1  0     0  0
 33 36  1  0     0  0
 35 39  3  0     0  0
 37 40  1  0     0  0
M  END
> <standard_type>
pIC50

> <# Confs.>
25

> <canonical_smiles>
FC1=CC=CC(NC(CC2=CC(NC3=C(C=C(OC)C(OCCCN(CCO)C#C)=C4)C4=NC=N3)=NN2)=O)=C1F

> <standard_relation>
=

> <Publication_ID>
nan

> <predicted_activity_value>
7.853871964321762

> <actual_activity_value>
7.823908740944319

> <Compound>
26

> <standard_units>
nM

> hash
388421990724528612

$$$$
26_
XXILIB    08252103423D 0   0.00000     0.00000

 40 43  0     1  0            999 V2000
   -7.3559   -1.8803    7.1141 F   0  0  0  0  0  1           0  0  0
   -6.6676   -3.7043    8.9940 F   0  0  0  0  0  1           0  0  0
    1.3664    0.0000   -0.0000 O   0  0  0  0  0  2           0  0  0
   -0.0425    0.0084    2.3502 O   0  0  0  0  0  2           0  0  0
   -9.4484   -3.9539    3.0870 O   0  0  0  0  0  2           0  0  0
    5.7450   -0.7562    3.8527 O   0  0  0  0  0  2           0  0  0
   -8.0704   -1.7928    0.5923 N   0  0  0  0  0  3           0  0  0
   -6.9321   -1.4415   -0.0240 N   0  0  0  0  0  3           0  0  0
   -4.7514   -0.2139   -1.6049 N   0  0  0  0  0  3           0  0  0
   -2.5604   -0.1961   -2.5756 N   0  0  0  0  0  3           0  0  0
   -5.0709   -0.0971    0.7542 N   0  0  0  0  0  3           0  0  0
   -8.5301   -2.6047    4.7419 N   0  0  0  0  0  3           0  0  0
    5.4652    0.2177    1.1564 N   0  0  1  0  0  3           0  0  0
   -7.5901   -3.1810    6.8843 C   0  0  0  0  0  4           0  0  0
   -7.2347   -4.1142    7.8511 C   0  0  0  0  0  4           0  0  0
   -0.0000    0.0000    0.0000 C   0  0  0  0  0  4           0  0  0
   -0.7456   -0.0000    1.1788 C   0  0  0  0  0  4           0  0  0
   -3.8984   -0.2438   -2.6375 C   0  0  0  0  0  4           0  0  0
   -6.2828   -0.6982    0.8854 C   0  0  0  0  0  4           0  0  0
   -4.2071   -0.1104   -0.3668 C   0  0  0  0  0  4           0  0  0
   -2.0188   -0.1185   -1.3532 C   0  0  0  0  0  4           0  0  0
   -8.1904   -1.3096    1.8642 C   0  0  0  0  0  4           0  0  0
   -8.1865   -3.5876    5.6896 C   0  0  0  0  0  4           0  0  0
   -2.8001   -0.0801   -0.1806 C   0  0  0  0  0  4           0  0  0
   -7.4638   -5.4693    7.6434 C   0  0  0  0  0  4           0  0  0
   -0.6342   -0.0814   -1.2422 C   0  0  0  0  0  4           0  0  0
   -2.1409   -0.0300    1.0794 C   0  0  0  0  0  4           0  0  0
   -7.0368   -0.5916    2.0846 C   0  0  0  0  0  4           0  0  0
   -8.4216   -4.9518    5.4783 C   0  0  0  0  0  4           0  0  0
   -8.0589   -5.8872    6.4538 C   0  0  0  0  0  4           0  0  0
   -9.1247   -2.8470    3.5161 C   0  0  0  0  0  4           0  0  0
    1.9821    1.2885    0.0000 C   0  0  0  0  0  4           0  0  0
    6.7303   -1.0159    2.8602 C   0  0  0  0  0  4           0  0  0
   -0.8327    0.0082    3.5369 C   0  0  0  0  0  4           0  0  0
    6.2856    1.4271    1.1316 C   0  0  0  0  0  4           0  0  0
    6.0986   -1.0472    1.4745 C   0  0  0  0  0  4           0  0  0
    4.0234    0.3526    1.2084 C   0  0  0  0  0  4           0  0  0
   -9.3687   -1.5838    2.7223 C   0  0  0  0  0  4           0  0  0
    6.9589    2.4206    1.1078 C   0  0  0  0  0  4           0  0  0
    3.4957    1.1152   -0.0000 C   0  0  0  0  0  4           0  0  0
  1 14  1  0     0  0
  2 15  1  0     0  0
  3 16  1  0     0  0
  3 32  1  0     0  0
  4 17  1  0     0  0
  4 34  1  0     0  0
  5 31  2  0     0  0
  6 33  1  0     0  0
  7  8  1  0     0  0
  7 22  1  0     0  0
  8 19  2  0     0  0
  9 18  2  0     0  0
  9 20  1  0     0  0
 10 18  1  0     0  0
 10 21  2  0     0  0
 11 19  1  0     0  0
 11 20  1  0     0  0
 12 23  1  0     0  0
 12 31  1  0     0  0
 13 35  1  0     0  0
 13 36  1  0     0  0
 13 37  1  0     0  0
 14 15  1  0     0  0
 14 23  2  0     0  0
 15 25  2  0     0  0
 16 17  1  0     0  0
 16 26  2  0     0  0
 17 27  2  0     0  0
 19 28  1  0     0  0
 20 24  2  0     0  0
 21 24  1  0     0  0
 21 26  1  0     0  0
 22 28  2  0     0  0
 22 38  1  0     0  0
 23 29  1  0     0  0
 24 27  1  0     0  0
 25 30  1  0     0  0
 29 30  2  0     0  0
 31 38  1  0     0  0
 32 40  1  0     0  0
 33 36  1  0     0  0
 35 39  3  0     0  0
 37 40  1  0     0  0
M  END
> <standard_type>
pIC50

> <# Confs.>
25

> <canonical_smiles>
FC1=CC=CC(NC(CC2=CC(NC3=C(C=C(OC)C(OCCCN(CCO)C#C)=C4)C4=NC=N3)=NN2)=O)=C1F

> <standard_relation>
=

> <Publication_ID>
nan

> <predicted_activity_value>
7.853871964321762

> <actual_activity_value>
7.823908740944319

> <Compound>
26

> <standard_units>
nM

> hash
388421990724528612

$$$$
24_
XXILIB    08252103423D 0   0.00000     0.00000

 44 47  0     1  0            999 V2000
   -4.9589   -4.2007   15.4027 Cl  0  0  0  0  0  1           0  0  0
   -1.8598   -1.4360   -5.6315 P   0  0  1  0  0  5           0  0  0
   -6.9300   -6.4017   15.2879 F   0  0  0  0  0  1           0  0  0
   -2.1161   -0.7816   -6.9572 O   0  0  0  0  0  2           0  0  0
   -0.3021   -1.5877   -5.2216 O   0  0  0  0  0  2           0  0  0
   -2.5079   -0.6813   -4.3569 O   0  0  0  0  0  2           0  0  0
   -2.4381   -2.9406   -5.4971 O   0  0  0  0  0  2           0  0  0
    0.0000    0.0000    0.0000 O   0  0  0  0  0  2           0  0  0
   -2.2929   -1.1715    0.4037 O   0  0  0  0  0  2           0  0  0
   -6.9876   -3.9344    9.5266 O   0  0  0  0  0  2           0  0  0
   -3.2014   -2.1608    8.9716 N   0  0  0  0  0  3           0  0  0
   -5.3259   -2.5682    7.9580 N   0  0  0  0  0  3           0  0  0
   -1.2849    0.4836    6.2350 N   0  0  0  0  0  3           0  0  0
    0.4037    1.1115    4.6548 N   0  0  0  0  0  3           0  0  0
   -3.2392   -0.6944    5.5592 N   0  0  0  0  0  3           0  0  0
   -4.8411   -3.3452   10.1596 N   0  0  0  0  0  3           0  0  0
    1.9575   -2.8427   -2.5581 N   0  0  1  0  0  3           0  0  0
   -5.8051   -4.7498   14.0078 C   0  0  0  0  0  4           0  0  0
   -6.7111   -5.8058   14.1059 C   0  0  0  0  0  4           0  0  0
   -0.4633    0.0000    1.2916 C   0  0  0  0  0  4           0  0  0
   -1.6947   -0.6276    1.5052 C   0  0  0  0  0  4           0  0  0
   -4.4522   -2.6680    8.9839 C   0  0  0  0  0  4           0  0  0
   -0.1212    1.0483    5.8868 C   0  0  0  0  0  4           0  0  0
   -2.0174   -0.0663    5.2359 C   0  0  0  0  0  4           0  0  0
   -0.3051    0.5462    3.6690 C   0  0  0  0  0  4           0  0  0
   -2.8238   -1.5182    7.8431 C   0  0  0  0  0  4           0  0  0
   -4.8867   -1.9143    6.8596 C   0  0  0  0  0  4           0  0  0
   -3.6273   -1.3563    6.7289 C   0  0  0  0  0  4           0  0  0
   -1.5465   -0.0766    3.8980 C   0  0  0  0  0  4           0  0  0
   -6.2845   -4.5927   11.6591 C   0  0  0  0  0  4           0  0  0
   -5.5856   -4.1324   12.7777 C   0  0  0  0  0  4           0  0  0
   -7.4067   -6.2577   12.9853 C   0  0  0  0  0  4           0  0  0
    0.2115    0.5750    2.3758 C   0  0  0  0  0  4           0  0  0
   -2.2258   -0.6645    2.7996 C   0  0  0  0  0  4           0  0  0
   -7.1957   -5.6474   11.7507 C   0  0  0  0  0  4           0  0  0
   -6.0753   -3.9292   10.3503 C   0  0  0  0  0  4           0  0  0
    0.0166   -2.1975   -3.9808 C   0  0  0  0  0  4           0  0  0
    1.4280    0.0000    0.0000 C   0  0  0  0  0  4           0  0  0
   -3.5470   -1.8064    0.6425 C   0  0  0  0  0  4           0  0  0
    1.5308   -2.2274   -3.8175 C   0  0  0  0  0  4           0  0  0
    1.4673   -2.1779   -1.3527 C   0  0  0  0  0  4           0  0  0
    1.8819   -4.3020   -2.5308 C   0  0  0  0  0  4           0  0  0
    1.9237   -0.7202   -1.2474 C   0  0  0  0  0  4           0  0  0
    2.7568   -4.9374   -3.6062 C   0  0  0  0  0  4           0  0  0
  1 18  1  0     0  0
  2  4  2  0     0  0
  2  5  1  0     0  0
  2  6  1  0     0  0
  2  7  1  0     0  0
  3 19  1  0     0  0
  5 37  1  0     0  0
  8 20  1  0     0  0
  8 38  1  0     0  0
  9 21  1  0     0  0
  9 39  1  0     0  0
 10 36  2  0     0  0
 11 22  2  0     0  0
 11 26  1  0     0  0
 12 22  1  0     0  0
 12 27  2  0     0  0
 13 23  1  0     0  0
 13 24  2  0     0  0
 14 23  2  0     0  0
 14 25  1  0     0  0
 15 24  1  0     0  0
 15 28  1  0     0  0
 16 22  1  0     0  0
 16 36  1  0     0  0
 17 40  1  0     0  0
 17 41  1  0     0  0
 17 42  1  0     0  0
 18 19  1  0     0  0
 18 31  2  0     0  0
 19 32  2  0     0  0
 20 21  1  0     0  0
 20 33  2  0     0  0
 21 34  2  0     0  0
 24 29  1  0     0  0
 25 29  2  0     0  0
 25 33  1  0     0  0
 26 28  2  0     0  0
 27 28  1  0     0  0
 29 34  1  0     0  0
 30 31  1  0     0  0
 30 35  2  0     0  0
 30 36  1  0     0  0
 32 35  1  0     0  0
 37 40  1  0     0  0
 38 43  1  0     0  0
 41 43  1  0     0  0
 42 44  1  0     0  0
M  END
> <standard_type>
pIC50

> <# Confs.>
25

> <canonical_smiles>
FC1=CC=C(C(NC2=NC=C(NC3=NC=NC4=C3C=C(OC)C(OCCCN(CC)CCOP(O)(O)=O)=C4)C=N2)=O)C=C1Cl

> <standard_relation>
=

> <Publication_ID>
nan

> <predicted_activity_value>
7.721246399047171

> <actual_activity_value>
7.920818753952375

> <Compound>
24

> <standard_units>
nM

> hash
9306251387136053245

$$$$
24_
XXILIB    08252103423D 0   0.00000     0.00000

 44 47  0     1  0            999 V2000
   -8.4411   -7.6193   13.1130 Cl  0  0  0  0  0  1           0  0  0
   -1.8598   -1.4360   -5.6315 P   0  0  1  0  0  5           0  0  0
   -6.7981   -6.4587   15.2801 F   0  0  0  0  0  1           0  0  0
   -2.1161   -0.7816   -6.9572 O   0  0  0  0  0  2           0  0  0
   -0.3021   -1.5877   -5.2216 O   0  0  0  0  0  2           0  0  0
   -2.5079   -0.6813   -4.3569 O   0  0  0  0  0  2           0  0  0
   -2.4381   -2.9406   -5.4971 O   0  0  0  0  0  2           0  0  0
    0.0000    0.0000    0.0000 O   0  0  0  0  0  2           0  0  0
   -2.2929   -1.1715    0.4037 O   0  0  0  0  0  2           0  0  0
   -6.9876   -3.9344    9.5266 O   0  0  0  0  0  2           0  0  0
   -3.2014   -2.1608    8.9716 N   0  0  0  0  0  3           0  0  0
   -5.3259   -2.5682    7.9580 N   0  0  0  0  0  3           0  0  0
   -1.2849    0.4836    6.2350 N   0  0  0  0  0  3           0  0  0
    0.4037    1.1115    4.6548 N   0  0  0  0  0  3           0  0  0
   -3.2392   -0.6944    5.5592 N   0  0  0  0  0  3           0  0  0
   -4.8411   -3.3452   10.1596 N   0  0  0  0  0  3           0  0  0
    1.9575   -2.8427   -2.5581 N   0  0  1  0  0  3           0  0  0
   -7.3502   -6.2945   12.9777 C   0  0  0  0  0  4           0  0  0
   -6.6383   -5.8537   14.0932 C   0  0  0  0  0  4           0  0  0
   -0.4633    0.0000    1.2916 C   0  0  0  0  0  4           0  0  0
   -1.6947   -0.6276    1.5052 C   0  0  0  0  0  4           0  0  0
   -4.4522   -2.6680    8.9839 C   0  0  0  0  0  4           0  0  0
   -0.1212    1.0483    5.8868 C   0  0  0  0  0  4           0  0  0
   -2.0174   -0.0663    5.2359 C   0  0  0  0  0  4           0  0  0
   -0.3051    0.5462    3.6690 C   0  0  0  0  0  4           0  0  0
   -2.8238   -1.5182    7.8431 C   0  0  0  0  0  4           0  0  0
   -4.8867   -1.9143    6.8596 C   0  0  0  0  0  4           0  0  0
   -3.6273   -1.3563    6.7289 C   0  0  0  0  0  4           0  0  0
   -1.5465   -0.0766    3.8980 C   0  0  0  0  0  4           0  0  0
   -6.2845   -4.5927   11.6591 C   0  0  0  0  0  4           0  0  0
   -7.1763   -5.6644   11.7468 C   0  0  0  0  0  4           0  0  0
   -5.7481   -4.7850   13.9971 C   0  0  0  0  0  4           0  0  0
    0.2115    0.5750    2.3758 C   0  0  0  0  0  4           0  0  0
   -2.2258   -0.6645    2.7996 C   0  0  0  0  0  4           0  0  0
   -5.5658   -4.1481   12.7713 C   0  0  0  0  0  4           0  0  0
   -6.0753   -3.9292   10.3503 C   0  0  0  0  0  4           0  0  0
    0.0166   -2.1975   -3.9808 C   0  0  0  0  0  4           0  0  0
    1.4280    0.0000    0.0000 C   0  0  0  0  0  4           0  0  0
   -3.5470   -1.8064    0.6425 C   0  0  0  0  0  4           0  0  0
    1.5308   -2.2274   -3.8175 C   0  0  0  0  0  4           0  0  0
    1.4673   -2.1779   -1.3527 C   0  0  0  0  0  4           0  0  0
    1.8819   -4.3020   -2.5308 C   0  0  0  0  0  4           0  0  0
    1.9237   -0.7202   -1.2474 C   0  0  0  0  0  4           0  0  0
    2.7568   -4.9374   -3.6062 C   0  0  0  0  0  4           0  0  0
  1 18  1  0     0  0
  2  4  2  0     0  0
  2  5  1  0     0  0
  2  6  1  0     0  0
  2  7  1  0     0  0
  3 19  1  0     0  0
  5 37  1  0     0  0
  8 20  1  0     0  0
  8 38  1  0     0  0
  9 21  1  0     0  0
  9 39  1  0     0  0
 10 36  2  0     0  0
 11 22  2  0     0  0
 11 26  1  0     0  0
 12 22  1  0     0  0
 12 27  2  0     0  0
 13 23  1  0     0  0
 13 24  2  0     0  0
 14 23  2  0     0  0
 14 25  1  0     0  0
 15 24  1  0     0  0
 15 28  1  0     0  0
 16 22  1  0     0  0
 16 36  1  0     0  0
 17 40  1  0     0  0
 17 41  1  0     0  0
 17 42  1  0     0  0
 18 19  1  0     0  0
 18 31  2  0     0  0
 19 32  2  0     0  0
 20 21  1  0     0  0
 20 33  2  0     0  0
 21 34  2  0     0  0
 24 29  1  0     0  0
 25 29  2  0     0  0
 25 33  1  0     0  0
 26 28  2  0     0  0
 27 28  1  0     0  0
 29 34  1  0     0  0
 30 31  1  0     0  0
 30 35  2  0     0  0
 30 36  1  0     0  0
 32 35  1  0     0  0
 37 40  1  0     0  0
 38 43  1  0     0  0
 41 43  1  0     0  0
 42 44  1  0     0  0
M  END
> <standard_type>
pIC50

> <# Confs.>
25

> <canonical_smiles>
FC1=CC=C(C(NC2=NC=C(NC3=NC=NC4=C3C=C(OC)C(OCCCN(CC)CCOP(O)(O)=O)=C4)C=N2)=O)C=C1Cl

> <standard_relation>
=

> <Publication_ID>
nan

> <predicted_activity_value>
7.721246399047171

> <actual_activity_value>
7.920818753952375

> <Compound>
24

> <standard_units>
nM

> hash
9306251387136053245

$$$$
24_
XXILIB    08252103423D 0   0.00000     0.00000

 44 47  0     1  0            999 V2000
   -8.6337   -2.5614   14.0846 Cl  0  0  0  0  0  1           0  0  0
    3.7217    6.1910   -2.1881 P   0  0  1  0  0  5           0  0  0
  -11.5076   -2.0216   13.6461 F   0  0  0  0  0  1           0  0  0
    3.2291    7.5661   -1.8444 O   0  0  0  0  0  2           0  0  0
    3.5130    5.0713   -1.0391 O   0  0  0  0  0  2           0  0  0
    3.0345    5.5212   -3.4894 O   0  0  0  0  0  2           0  0  0
    5.3015    6.1031   -2.5242 O   0  0  0  0  0  2           0  0  0
    0.0000    0.0000    0.0000 O   0  0  0  0  0  2           0  0  0
   -2.2963    1.1653    0.4024 O   0  0  0  0  0  2           0  0  0
   -8.6129    0.9436    8.9436 O   0  0  0  0  0  2           0  0  0
   -4.9701   -1.0938    8.3372 N   0  0  0  0  0  3           0  0  0
   -6.3245    0.7307    7.5998 N   0  0  0  0  0  3           0  0  0
   -1.3121   -0.5338    6.2252 N   0  0  0  0  0  3           0  0  0
    0.3913   -1.1343    4.6504 N   0  0  0  0  0  3           0  0  0
   -3.2536    0.6680    5.5540 N   0  0  0  0  0  3           0  0  0
   -7.0377   -0.6967    9.3717 N   0  0  0  0  0  3           0  0  0
    4.0767    1.4891   -0.2485 N   0  0  1  0  0  3           0  0  0
   -9.3310   -1.7382   12.7432 C   0  0  0  0  0  4           0  0  0
  -10.7121   -1.5564   12.6709 C   0  0  0  0  0  4           0  0  0
   -0.4633    0.0000    1.2916 C   0  0  0  0  0  4           0  0  0
   -1.6947    0.6276    1.5052 C   0  0  0  0  0  4           0  0  0
   -6.0823   -0.3314    8.3993 C   0  0  0  0  0  4           0  0  0
   -0.1483   -1.0982    5.8771 C   0  0  0  0  0  4           0  0  0
   -2.0097    0.0805    5.2386 C   0  0  0  0  0  4           0  0  0
   -0.3077   -0.5509    3.6681 C   0  0  0  0  0  4           0  0  0
   -4.0566   -0.7503    7.4009 C   0  0  0  0  0  4           0  0  0
   -5.3722    1.0208    6.6854 C   0  0  0  0  0  4           0  0  0
   -4.1952    0.3114    6.5252 C   0  0  0  0  0  4           0  0  0
   -1.5432    0.0827    3.8992 C   0  0  0  0  0  4           0  0  0
   -9.0968   -0.5822   10.6504 C   0  0  0  0  0  4           0  0  0
   -8.5101   -1.2489   11.7288 C   0  0  0  0  0  4           0  0  0
  -11.2899   -0.8877   11.5925 C   0  0  0  0  0  4           0  0  0
    0.2090   -0.5796    2.3749 C   0  0  0  0  0  4           0  0  0
   -2.2263    0.6637    2.7994 C   0  0  0  0  0  4           0  0  0
  -10.4787   -0.3935   10.5732 C   0  0  0  0  0  4           0  0  0
   -8.2315   -0.0383    9.5770 C   0  0  0  0  0  4           0  0  0
    3.9548    3.7473   -1.2939 C   0  0  0  0  0  4           0  0  0
    1.4280    0.0000   -0.0000 C   0  0  0  0  0  4           0  0  0
   -3.5503    1.8003    0.6414 C   0  0  0  0  0  4           0  0  0
    3.6534    2.8814   -0.0775 C   0  0  0  0  0  4           0  0  0
    3.4486    0.7892   -1.3670 C   0  0  0  0  0  4           0  0  0
    5.5137    1.2622   -0.1086 C   0  0  0  0  0  4           0  0  0
    1.9237    0.7202   -1.2474 C   0  0  0  0  0  4           0  0  0
    6.0229    1.6716    1.2694 C   0  0  0  0  0  4           0  0  0
  1 18  1  0     0  0
  2  4  2  0     0  0
  2  5  1  0     0  0
  2  6  1  0     0  0
  2  7  1  0     0  0
  3 19  1  0     0  0
  5 37  1  0     0  0
  8 20  1  0     0  0
  8 38  1  0     0  0
  9 21  1  0     0  0
  9 39  1  0     0  0
 10 36  2  0     0  0
 11 22  2  0     0  0
 11 26  1  0     0  0
 12 22  1  0     0  0
 12 27  2  0     0  0
 13 23  1  0     0  0
 13 24  2  0     0  0
 14 23  2  0     0  0
 14 25  1  0     0  0
 15 24  1  0     0  0
 15 28  1  0     0  0
 16 22  1  0     0  0
 16 36  1  0     0  0
 17 40  1  0     0  0
 17 41  1  0     0  0
 17 42  1  0     0  0
 18 19  1  0     0  0
 18 31  2  0     0  0
 19 32  2  0     0  0
 20 21  1  0     0  0
 20 33  2  0     0  0
 21 34  2  0     0  0
 24 29  1  0     0  0
 25 29  2  0     0  0
 25 33  1  0     0  0
 26 28  2  0     0  0
 27 28  1  0     0  0
 29 34  1  0     0  0
 30 31  1  0     0  0
 30 35  2  0     0  0
 30 36  1  0     0  0
 32 35  1  0     0  0
 37 40  1  0     0  0
 38 43  1  0     0  0
 41 43  1  0     0  0
 42 44  1  0     0  0
M  END
> <standard_type>
pIC50

> <# Confs.>
25

> <canonical_smiles>
FC1=CC=C(C(NC2=NC=C(NC3=NC=NC4=C3C=C(OC)C(OCCCN(CC)CCOP(O)(O)=O)=C4)C=N2)=O)C=C1Cl

> <standard_relation>
=

> <Publication_ID>
nan

> <predicted_activity_value>
7.721246399047171

> <actual_activity_value>
7.920818753952375

> <Compound>
24

> <standard_units>
nM

> hash
9306251387136053245

$$$$
24_
XXILIB    08252103423D 0   0.00000     0.00000

 44 47  0     1  0            999 V2000
   -8.6337   -2.5614   14.0846 Cl  0  0  0  0  0  1           0  0  0
   -1.8598    4.1590   -4.0594 P   0  0  1  0  0  5           0  0  0
  -11.5076   -2.0216   13.6461 F   0  0  0  0  0  1           0  0  0
   -2.1161    5.6343   -4.1555 O   0  0  0  0  0  2           0  0  0
   -0.3021    3.7282   -3.9858 O   0  0  0  0  0  2           0  0  0
   -2.5079    3.4325   -2.7685 O   0  0  0  0  0  2           0  0  0
   -2.4381    3.2903   -5.2952 O   0  0  0  0  0  2           0  0  0
    0.0000    0.0000    0.0000 O   0  0  0  0  0  2           0  0  0
   -2.2963    1.1653    0.4024 O   0  0  0  0  0  2           0  0  0
   -8.6129    0.9436    8.9436 O   0  0  0  0  0  2           0  0  0
   -4.9701   -1.0938    8.3372 N   0  0  0  0  0  3           0  0  0
   -6.3245    0.7307    7.5998 N   0  0  0  0  0  3           0  0  0
   -1.3121   -0.5338    6.2252 N   0  0  0  0  0  3           0  0  0
    0.3913   -1.1343    4.6504 N   0  0  0  0  0  3           0  0  0
   -3.2536    0.6680    5.5540 N   0  0  0  0  0  3           0  0  0
   -7.0377   -0.6967    9.3717 N   0  0  0  0  0  3           0  0  0
    1.9575    0.7940   -3.7409 N   0  0  1  0  0  3           0  0  0
   -9.3310   -1.7382   12.7432 C   0  0  0  0  0  4           0  0  0
  -10.7121   -1.5564   12.6709 C   0  0  0  0  0  4           0  0  0
   -0.4633    0.0000    1.2916 C   0  0  0  0  0  4           0  0  0
   -1.6947    0.6276    1.5052 C   0  0  0  0  0  4           0  0  0
   -6.0823   -0.3314    8.3993 C   0  0  0  0  0  4           0  0  0
   -0.1483   -1.0982    5.8771 C   0  0  0  0  0  4           0  0  0
   -2.0097    0.0805    5.2386 C   0  0  0  0  0  4           0  0  0
   -0.3077   -0.5509    3.6681 C   0  0  0  0  0  4           0  0  0
   -4.0566   -0.7503    7.4009 C   0  0  0  0  0  4           0  0  0
   -5.3722    1.0208    6.6854 C   0  0  0  0  0  4           0  0  0
   -4.1952    0.3114    6.5252 C   0  0  0  0  0  4           0  0  0
   -1.5432    0.0827    3.8992 C   0  0  0  0  0  4           0  0  0
   -9.0968   -0.5822   10.6504 C   0  0  0  0  0  4           0  0  0
   -8.5101   -1.2489   11.7288 C   0  0  0  0  0  4           0  0  0
  -11.2899   -0.8877   11.5925 C   0  0  0  0  0  4           0  0  0
    0.2090   -0.5796    2.3749 C   0  0  0  0  0  4           0  0  0
   -2.2263    0.6637    2.7994 C   0  0  0  0  0  4           0  0  0
  -10.4787   -0.3935   10.5732 C   0  0  0  0  0  4           0  0  0
   -8.2315   -0.0383    9.5770 C   0  0  0  0  0  4           0  0  0
    0.0166    2.3487   -3.8935 C   0  0  0  0  0  4           0  0  0
    1.4280    0.0000    0.0000 C   0  0  0  0  0  4           0  0  0
   -3.5503    1.8003    0.6414 C   0  0  0  0  0  4           0  0  0
    1.5308    2.1924   -3.8377 C   0  0  0  0  0  4           0  0  0
    1.4673    0.0825   -2.5625 C   0  0  0  0  0  4           0  0  0
    1.8819    0.0407   -4.9911 C   0  0  0  0  0  4           0  0  0
    1.9237    0.7202   -1.2474 C   0  0  0  0  0  4           0  0  0
    2.7568    0.6544   -6.0790 C   0  0  0  0  0  4           0  0  0
  1 18  1  0     0  0
  2  4  2  0     0  0
  2  5  1  0     0  0
  2  6  1  0     0  0
  2  7  1  0     0  0
  3 19  1  0     0  0
  5 37  1  0     0  0
  8 20  1  0     0  0
  8 38  1  0     0  0
  9 21  1  0     0  0
  9 39  1  0     0  0
 10 36  2  0     0  0
 11 22  2  0     0  0
 11 26  1  0     0  0
 12 22  1  0     0  0
 12 27  2  0     0  0
 13 23  1  0     0  0
 13 24  2  0     0  0
 14 23  2  0     0  0
 14 25  1  0     0  0
 15 24  1  0     0  0
 15 28  1  0     0  0
 16 22  1  0     0  0
 16 36  1  0     0  0
 17 40  1  0     0  0
 17 41  1  0     0  0
 17 42  1  0     0  0
 18 19  1  0     0  0
 18 31  2  0     0  0
 19 32  2  0     0  0
 20 21  1  0     0  0
 20 33  2  0     0  0
 21 34  2  0     0  0
 24 29  1  0     0  0
 25 29  2  0     0  0
 25 33  1  0     0  0
 26 28  2  0     0  0
 27 28  1  0     0  0
 29 34  1  0     0  0
 30 31  1  0     0  0
 30 35  2  0     0  0
 30 36  1  0     0  0
 32 35  1  0     0  0
 37 40  1  0     0  0
 38 43  1  0     0  0
 41 43  1  0     0  0
 42 44  1  0     0  0
M  END
> <standard_type>
pIC50

> <# Confs.>
25

> <canonical_smiles>
FC1=CC=C(C(NC2=NC=C(NC3=NC=NC4=C3C=C(OC)C(OCCCN(CC)CCOP(O)(O)=O)=C4)C=N2)=O)C=C1Cl

> <standard_relation>
=

> <Publication_ID>
nan

> <predicted_activity_value>
7.721246399047171

> <actual_activity_value>
7.920818753952375

> <Compound>
24

> <standard_units>
nM

> hash
9306251387136053245

$$$$
24_
XXILIB    08252103423D 0   0.00000     0.00000

 44 47  0     1  0            999 V2000
   -8.6337   -2.5614   14.0846 Cl  0  0  0  0  0  1           0  0  0
    3.7217    6.1910   -2.1881 P   0  0  1  0  0  5           0  0  0
  -11.5076   -2.0216   13.6461 F   0  0  0  0  0  1           0  0  0
    5.1444    6.4367   -2.5971 O   0  0  0  0  0  2           0  0  0
    3.5130    5.0713   -1.0391 O   0  0  0  0  0  2           0  0  0
    2.9454    7.4800   -1.5966 O   0  0  0  0  0  2           0  0  0
    2.7502    5.6971   -3.3833 O   0  0  0  0  0  2           0  0  0
    0.0000    0.0000    0.0000 O   0  0  0  0  0  2           0  0  0
   -2.2963    1.1653    0.4024 O   0  0  0  0  0  2           0  0  0
   -8.6129    0.9436    8.9436 O   0  0  0  0  0  2           0  0  0
   -4.9701   -1.0938    8.3372 N   0  0  0  0  0  3           0  0  0
   -6.3245    0.7307    7.5998 N   0  0  0  0  0  3           0  0  0
   -1.3121   -0.5338    6.2252 N   0  0  0  0  0  3           0  0  0
    0.3913   -1.1343    4.6504 N   0  0  0  0  0  3           0  0  0
   -3.2536    0.6680    5.5540 N   0  0  0  0  0  3           0  0  0
   -7.0377   -0.6967    9.3717 N   0  0  0  0  0  3           0  0  0
    4.0767    1.4891   -0.2485 N   0  0  1  0  0  3           0  0  0
   -9.3310   -1.7382   12.7432 C   0  0  0  0  0  4           0  0  0
  -10.7121   -1.5564   12.6709 C   0  0  0  0  0  4           0  0  0
   -0.4633    0.0000    1.2916 C   0  0  0  0  0  4           0  0  0
   -1.6947    0.6276    1.5052 C   0  0  0  0  0  4           0  0  0
   -6.0823   -0.3314    8.3993 C   0  0  0  0  0  4           0  0  0
   -0.1483   -1.0982    5.8771 C   0  0  0  0  0  4           0  0  0
   -2.0097    0.0805    5.2386 C   0  0  0  0  0  4           0  0  0
   -0.3077   -0.5509    3.6681 C   0  0  0  0  0  4           0  0  0
   -4.0566   -0.7503    7.4009 C   0  0  0  0  0  4           0  0  0
   -5.3722    1.0208    6.6854 C   0  0  0  0  0  4           0  0  0
   -4.1952    0.3114    6.5252 C   0  0  0  0  0  4           0  0  0
   -1.5432    0.0827    3.8992 C   0  0  0  0  0  4           0  0  0
   -9.0968   -0.5822   10.6504 C   0  0  0  0  0  4           0  0  0
   -8.5101   -1.2489   11.7288 C   0  0  0  0  0  4           0  0  0
  -11.2899   -0.8877   11.5925 C   0  0  0  0  0  4           0  0  0
    0.2090   -0.5796    2.3749 C   0  0  0  0  0  4           0  0  0
   -2.2263    0.6637    2.7994 C   0  0  0  0  0  4           0  0  0
  -10.4787   -0.3935   10.5732 C   0  0  0  0  0  4           0  0  0
   -8.2315   -0.0383    9.5770 C   0  0  0  0  0  4           0  0  0
    3.9548    3.7473   -1.2939 C   0  0  0  0  0  4           0  0  0
    1.4280    0.0000   -0.0000 C   0  0  0  0  0  4           0  0  0
   -3.5503    1.8003    0.6414 C   0  0  0  0  0  4           0  0  0
    3.6534    2.8814   -0.0775 C   0  0  0  0  0  4           0  0  0
    3.4486    0.7892   -1.3670 C   0  0  0  0  0  4           0  0  0
    5.5137    1.2622   -0.1086 C   0  0  0  0  0  4           0  0  0
    1.9237    0.7202   -1.2474 C   0  0  0  0  0  4           0  0  0
    6.0229    1.6716    1.2694 C   0  0  0  0  0  4           0  0  0
  1 18  1  0     0  0
  2  4  2  0     0  0
  2  5  1  0     0  0
  2  6  1  0     0  0
  2  7  1  0     0  0
  3 19  1  0     0  0
  5 37  1  0     0  0
  8 20  1  0     0  0
  8 38  1  0     0  0
  9 21  1  0     0  0
  9 39  1  0     0  0
 10 36  2  0     0  0
 11 22  2  0     0  0
 11 26  1  0     0  0
 12 22  1  0     0  0
 12 27  2  0     0  0
 13 23  1  0     0  0
 13 24  2  0     0  0
 14 23  2  0     0  0
 14 25  1  0     0  0
 15 24  1  0     0  0
 15 28  1  0     0  0
 16 22  1  0     0  0
 16 36  1  0     0  0
 17 40  1  0     0  0
 17 41  1  0     0  0
 17 42  1  0     0  0
 18 19  1  0     0  0
 18 31  2  0     0  0
 19 32  2  0     0  0
 20 21  1  0     0  0
 20 33  2  0     0  0
 21 34  2  0     0  0
 24 29  1  0     0  0
 25 29  2  0     0  0
 25 33  1  0     0  0
 26 28  2  0     0  0
 27 28  1  0     0  0
 29 34  1  0     0  0
 30 31  1  0     0  0
 30 35  2  0     0  0
 30 36  1  0     0  0
 32 35  1  0     0  0
 37 40  1  0     0  0
 38 43  1  0     0  0
 41 43  1  0     0  0
 42 44  1  0     0  0
M  END
> <standard_type>
pIC50

> <# Confs.>
25

> <canonical_smiles>
FC1=CC=C(C(NC2=NC=C(NC3=NC=NC4=C3C=C(OC)C(OCCCN(CC)CCOP(O)(O)=O)=C4)C=N2)=O)C=C1Cl

> <standard_relation>
=

> <Publication_ID>
nan

> <predicted_activity_value>
7.721246399047171

> <actual_activity_value>
7.920818753952375

> <Compound>
24

> <standard_units>
nM

> hash
9306251387136053245

$$$$
24_
XXILIB    08252103423D 0   0.00000     0.00000

 44 47  0     1  0            999 V2000
   -4.9589   -4.2007   15.4027 Cl  0  0  0  0  0  1           0  0  0
   -1.8598   -1.4360   -5.6315 P   0  0  1  0  0  5           0  0  0
   -6.9300   -6.4017   15.2879 F   0  0  0  0  0  1           0  0  0
   -2.6259   -2.7218   -5.7382 O   0  0  0  0  0  2           0  0  0
   -0.3021   -1.5877   -5.2216 O   0  0  0  0  0  2           0  0  0
   -1.8037   -0.5561   -6.9867 O   0  0  0  0  0  2           0  0  0
   -2.4410   -0.3911   -4.5422 O   0  0  0  0  0  2           0  0  0
    0.0000    0.0000    0.0000 O   0  0  0  0  0  2           0  0  0
   -2.2929   -1.1715    0.4037 O   0  0  0  0  0  2           0  0  0
   -6.9876   -3.9344    9.5266 O   0  0  0  0  0  2           0  0  0
   -3.2014   -2.1608    8.9716 N   0  0  0  0  0  3           0  0  0
   -5.3259   -2.5682    7.9580 N   0  0  0  0  0  3           0  0  0
   -1.2849    0.4836    6.2350 N   0  0  0  0  0  3           0  0  0
    0.4037    1.1115    4.6548 N   0  0  0  0  0  3           0  0  0
   -3.2392   -0.6944    5.5592 N   0  0  0  0  0  3           0  0  0
   -4.8411   -3.3452   10.1596 N   0  0  0  0  0  3           0  0  0
    1.9575   -2.8427   -2.5581 N   0  0  1  0  0  3           0  0  0
   -5.8051   -4.7498   14.0078 C   0  0  0  0  0  4           0  0  0
   -6.7111   -5.8058   14.1059 C   0  0  0  0  0  4           0  0  0
   -0.4633    0.0000    1.2916 C   0  0  0  0  0  4           0  0  0
   -1.6947   -0.6276    1.5052 C   0  0  0  0  0  4           0  0  0
   -4.4522   -2.6680    8.9839 C   0  0  0  0  0  4           0  0  0
   -0.1212    1.0483    5.8868 C   0  0  0  0  0  4           0  0  0
   -2.0174   -0.0663    5.2359 C   0  0  0  0  0  4           0  0  0
   -0.3051    0.5462    3.6690 C   0  0  0  0  0  4           0  0  0
   -2.8238   -1.5182    7.8431 C   0  0  0  0  0  4           0  0  0
   -4.8867   -1.9143    6.8596 C   0  0  0  0  0  4           0  0  0
   -3.6273   -1.3563    6.7289 C   0  0  0  0  0  4           0  0  0
   -1.5465   -0.0766    3.8980 C   0  0  0  0  0  4           0  0  0
   -6.2845   -4.5927   11.6591 C   0  0  0  0  0  4           0  0  0
   -5.5856   -4.1324   12.7777 C   0  0  0  0  0  4           0  0  0
   -7.4067   -6.2577   12.9853 C   0  0  0  0  0  4           0  0  0
    0.2115    0.5750    2.3758 C   0  0  0  0  0  4           0  0  0
   -2.2258   -0.6645    2.7996 C   0  0  0  0  0  4           0  0  0
   -7.1957   -5.6474   11.7507 C   0  0  0  0  0  4           0  0  0
   -6.0753   -3.9292   10.3503 C   0  0  0  0  0  4           0  0  0
    0.0166   -2.1975   -3.9808 C   0  0  0  0  0  4           0  0  0
    1.4280    0.0000    0.0000 C   0  0  0  0  0  4           0  0  0
   -3.5470   -1.8064    0.6425 C   0  0  0  0  0  4           0  0  0
    1.5308   -2.2274   -3.8175 C   0  0  0  0  0  4           0  0  0
    1.4673   -2.1779   -1.3527 C   0  0  0  0  0  4           0  0  0
    1.8819   -4.3020   -2.5308 C   0  0  0  0  0  4           0  0  0
    1.9237   -0.7202   -1.2474 C   0  0  0  0  0  4           0  0  0
    2.7568   -4.9374   -3.6062 C   0  0  0  0  0  4           0  0  0
  1 18  1  0     0  0
  2  4  2  0     0  0
  2  5  1  0     0  0
  2  6  1  0     0  0
  2  7  1  0     0  0
  3 19  1  0     0  0
  5 37  1  0     0  0
  8 20  1  0     0  0
  8 38  1  0     0  0
  9 21  1  0     0  0
  9 39  1  0     0  0
 10 36  2  0     0  0
 11 22  2  0     0  0
 11 26  1  0     0  0
 12 22  1  0     0  0
 12 27  2  0     0  0
 13 23  1  0     0  0
 13 24  2  0     0  0
 14 23  2  0     0  0
 14 25  1  0     0  0
 15 24  1  0     0  0
 15 28  1  0     0  0
 16 22  1  0     0  0
 16 36  1  0     0  0
 17 40  1  0     0  0
 17 41  1  0     0  0
 17 42  1  0     0  0
 18 19  1  0     0  0
 18 31  2  0     0  0
 19 32  2  0     0  0
 20 21  1  0     0  0
 20 33  2  0     0  0
 21 34  2  0     0  0
 24 29  1  0     0  0
 25 29  2  0     0  0
 25 33  1  0     0  0
 26 28  2  0     0  0
 27 28  1  0     0  0
 29 34  1  0     0  0
 30 31  1  0     0  0
 30 35  2  0     0  0
 30 36  1  0     0  0
 32 35  1  0     0  0
 37 40  1  0     0  0
 38 43  1  0     0  0
 41 43  1  0     0  0
 42 44  1  0     0  0
M  END
> <standard_type>
pIC50

> <# Confs.>
25

> <canonical_smiles>
FC1=CC=C(C(NC2=NC=C(NC3=NC=NC4=C3C=C(OC)C(OCCCN(CC)CCOP(O)(O)=O)=C4)C=N2)=O)C=C1Cl

> <standard_relation>
=

> <Publication_ID>
nan

> <predicted_activity_value>
7.721246399047171

> <actual_activity_value>
7.920818753952375

> <Compound>
24

> <standard_units>
nM

> hash
9306251387136053245

$$$$
24_
XXILIB    08252103423D 0   0.00000     0.00000

 44 47  0     1  0            999 V2000
  -12.9963   -0.7626   11.4792 Cl  0  0  0  0  0  1           0  0  0
    3.7217    6.1910   -2.1881 P   0  0  1  0  0  5           0  0  0
  -11.4794   -2.1552   13.6011 F   0  0  0  0  0  1           0  0  0
    3.2291    7.5661   -1.8444 O   0  0  0  0  0  2           0  0  0
    3.5130    5.0713   -1.0391 O   0  0  0  0  0  2           0  0  0
    3.0345    5.5212   -3.4894 O   0  0  0  0  0  2           0  0  0
    5.3015    6.1031   -2.5242 O   0  0  0  0  0  2           0  0  0
    0.0000    0.0000    0.0000 O   0  0  0  0  0  2           0  0  0
   -2.2963    1.1653    0.4024 O   0  0  0  0  0  2           0  0  0
   -8.6129    0.9436    8.9436 O   0  0  0  0  0  2           0  0  0
   -4.9701   -1.0938    8.3372 N   0  0  0  0  0  3           0  0  0
   -6.3245    0.7307    7.5998 N   0  0  0  0  0  3           0  0  0
   -1.3121   -0.5338    6.2252 N   0  0  0  0  0  3           0  0  0
    0.3913   -1.1343    4.6504 N   0  0  0  0  0  3           0  0  0
   -3.2536    0.6680    5.5540 N   0  0  0  0  0  3           0  0  0
   -7.0377   -0.6967    9.3717 N   0  0  0  0  0  3           0  0  0
    4.0767    1.4891   -0.2485 N   0  0  1  0  0  3           0  0  0
  -11.2873   -0.9499   11.5656 C   0  0  0  0  0  4           0  0  0
  -10.7086   -1.6361   12.6333 C   0  0  0  0  0  4           0  0  0
   -0.4633    0.0000    1.2916 C   0  0  0  0  0  4           0  0  0
   -1.6947    0.6276    1.5052 C   0  0  0  0  0  4           0  0  0
   -6.0823   -0.3314    8.3993 C   0  0  0  0  0  4           0  0  0
   -0.1483   -1.0982    5.8771 C   0  0  0  0  0  4           0  0  0
   -2.0097    0.0805    5.2386 C   0  0  0  0  0  4           0  0  0
   -0.3077   -0.5509    3.6681 C   0  0  0  0  0  4           0  0  0
   -4.0566   -0.7503    7.4009 C   0  0  0  0  0  4           0  0  0
   -5.3722    1.0208    6.6854 C   0  0  0  0  0  4           0  0  0
   -4.1952    0.3114    6.5252 C   0  0  0  0  0  4           0  0  0
   -1.5432    0.0827    3.8992 C   0  0  0  0  0  4           0  0  0
   -9.0968   -0.5822   10.6504 C   0  0  0  0  0  4           0  0  0
  -10.4811   -0.4167   10.5615 C   0  0  0  0  0  4           0  0  0
   -9.3263   -1.7992   12.7137 C   0  0  0  0  0  4           0  0  0
    0.2090   -0.5796    2.3749 C   0  0  0  0  0  4           0  0  0
   -2.2263    0.6637    2.7994 C   0  0  0  0  0  4           0  0  0
   -8.5108   -1.2710   11.7150 C   0  0  0  0  0  4           0  0  0
   -8.2315   -0.0383    9.5770 C   0  0  0  0  0  4           0  0  0
    3.9548    3.7473   -1.2939 C   0  0  0  0  0  4           0  0  0
    1.4280    0.0000   -0.0000 C   0  0  0  0  0  4           0  0  0
   -3.5503    1.8003    0.6414 C   0  0  0  0  0  4           0  0  0
    3.6534    2.8814   -0.0775 C   0  0  0  0  0  4           0  0  0
    3.4486    0.7892   -1.3670 C   0  0  0  0  0  4           0  0  0
    5.5137    1.2622   -0.1086 C   0  0  0  0  0  4           0  0  0
    1.9237    0.7202   -1.2474 C   0  0  0  0  0  4           0  0  0
    6.0229    1.6716    1.2694 C   0  0  0  0  0  4           0  0  0
  1 18  1  0     0  0
  2  4  2  0     0  0
  2  5  1  0     0  0
  2  6  1  0     0  0
  2  7  1  0     0  0
  3 19  1  0     0  0
  5 37  1  0     0  0
  8 20  1  0     0  0
  8 38  1  0     0  0
  9 21  1  0     0  0
  9 39  1  0     0  0
 10 36  2  0     0  0
 11 22  2  0     0  0
 11 26  1  0     0  0
 12 22  1  0     0  0
 12 27  2  0     0  0
 13 23  1  0     0  0
 13 24  2  0     0  0
 14 23  2  0     0  0
 14 25  1  0     0  0
 15 24  1  0     0  0
 15 28  1  0     0  0
 16 22  1  0     0  0
 16 36  1  0     0  0
 17 40  1  0     0  0
 17 41  1  0     0  0
 17 42  1  0     0  0
 18 19  1  0     0  0
 18 31  2  0     0  0
 19 32  2  0     0  0
 20 21  1  0     0  0
 20 33  2  0     0  0
 21 34  2  0     0  0
 24 29  1  0     0  0
 25 29  2  0     0  0
 25 33  1  0     0  0
 26 28  2  0     0  0
 27 28  1  0     0  0
 29 34  1  0     0  0
 30 31  1  0     0  0
 30 35  2  0     0  0
 30 36  1  0     0  0
 32 35  1  0     0  0
 37 40  1  0     0  0
 38 43  1  0     0  0
 41 43  1  0     0  0
 42 44  1  0     0  0
M  END
> <standard_type>
pIC50

> <# Confs.>
25

> <canonical_smiles>
FC1=CC=C(C(NC2=NC=C(NC3=NC=NC4=C3C=C(OC)C(OCCCN(CC)CCOP(O)(O)=O)=C4)C=N2)=O)C=C1Cl

> <standard_relation>
=

> <Publication_ID>
nan

> <predicted_activity_value>
7.721246399047171

> <actual_activity_value>
7.920818753952375

> <Compound>
24

> <standard_units>
nM

> hash
9306251387136053245

$$$$
24_
XXILIB    08252103423D 0   0.00000     0.00000

 44 47  0     1  0            999 V2000
  -12.9963   -0.7626   11.4792 Cl  0  0  0  0  0  1           0  0  0
    3.7217    6.1910   -2.1881 P   0  0  1  0  0  5           0  0  0
  -11.4794   -2.1552   13.6011 F   0  0  0  0  0  1           0  0  0
    5.1444    6.4367   -2.5971 O   0  0  0  0  0  2           0  0  0
    3.5130    5.0713   -1.0391 O   0  0  0  0  0  2           0  0  0
    2.9454    7.4800   -1.5966 O   0  0  0  0  0  2           0  0  0
    2.7502    5.6971   -3.3833 O   0  0  0  0  0  2           0  0  0
    0.0000    0.0000    0.0000 O   0  0  0  0  0  2           0  0  0
   -2.2963    1.1653    0.4024 O   0  0  0  0  0  2           0  0  0
   -8.6129    0.9436    8.9436 O   0  0  0  0  0  2           0  0  0
   -4.9701   -1.0938    8.3372 N   0  0  0  0  0  3           0  0  0
   -6.3245    0.7307    7.5998 N   0  0  0  0  0  3           0  0  0
   -1.3121   -0.5338    6.2252 N   0  0  0  0  0  3           0  0  0
    0.3913   -1.1343    4.6504 N   0  0  0  0  0  3           0  0  0
   -3.2536    0.6680    5.5540 N   0  0  0  0  0  3           0  0  0
   -7.0377   -0.6967    9.3717 N   0  0  0  0  0  3           0  0  0
    4.0767    1.4891   -0.2485 N   0  0  1  0  0  3           0  0  0
  -11.2873   -0.9499   11.5656 C   0  0  0  0  0  4           0  0  0
  -10.7086   -1.6361   12.6333 C   0  0  0  0  0  4           0  0  0
   -0.4633    0.0000    1.2916 C   0  0  0  0  0  4           0  0  0
   -1.6947    0.6276    1.5052 C   0  0  0  0  0  4           0  0  0
   -6.0823   -0.3314    8.3993 C   0  0  0  0  0  4           0  0  0
   -0.1483   -1.0982    5.8771 C   0  0  0  0  0  4           0  0  0
   -2.0097    0.0805    5.2386 C   0  0  0  0  0  4           0  0  0
   -0.3077   -0.5509    3.6681 C   0  0  0  0  0  4           0  0  0
   -4.0566   -0.7503    7.4009 C   0  0  0  0  0  4           0  0  0
   -5.3722    1.0208    6.6854 C   0  0  0  0  0  4           0  0  0
   -4.1952    0.3114    6.5252 C   0  0  0  0  0  4           0  0  0
   -1.5432    0.0827    3.8992 C   0  0  0  0  0  4           0  0  0
   -9.0968   -0.5822   10.6504 C   0  0  0  0  0  4           0  0  0
  -10.4811   -0.4167   10.5615 C   0  0  0  0  0  4           0  0  0
   -9.3263   -1.7992   12.7137 C   0  0  0  0  0  4           0  0  0
    0.2090   -0.5796    2.3749 C   0  0  0  0  0  4           0  0  0
   -2.2263    0.6637    2.7994 C   0  0  0  0  0  4           0  0  0
   -8.5108   -1.2710   11.7150 C   0  0  0  0  0  4           0  0  0
   -8.2315   -0.0383    9.5770 C   0  0  0  0  0  4           0  0  0
    3.9548    3.7473   -1.2939 C   0  0  0  0  0  4           0  0  0
    1.4280    0.0000   -0.0000 C   0  0  0  0  0  4           0  0  0
   -3.5503    1.8003    0.6414 C   0  0  0  0  0  4           0  0  0
    3.6534    2.8814   -0.0775 C   0  0  0  0  0  4           0  0  0
    3.4486    0.7892   -1.3670 C   0  0  0  0  0  4           0  0  0
    5.5137    1.2622   -0.1086 C   0  0  0  0  0  4           0  0  0
    1.9237    0.7202   -1.2474 C   0  0  0  0  0  4           0  0  0
    6.0229    1.6716    1.2694 C   0  0  0  0  0  4           0  0  0
  1 18  1  0     0  0
  2  4  2  0     0  0
  2  5  1  0     0  0
  2  6  1  0     0  0
  2  7  1  0     0  0
  3 19  1  0     0  0
  5 37  1  0     0  0
  8 20  1  0     0  0
  8 38  1  0     0  0
  9 21  1  0     0  0
  9 39  1  0     0  0
 10 36  2  0     0  0
 11 22  2  0     0  0
 11 26  1  0     0  0
 12 22  1  0     0  0
 12 27  2  0     0  0
 13 23  1  0     0  0
 13 24  2  0     0  0
 14 23  2  0     0  0
 14 25  1  0     0  0
 15 24  1  0     0  0
 15 28  1  0     0  0
 16 22  1  0     0  0
 16 36  1  0     0  0
 17 40  1  0     0  0
 17 41  1  0     0  0
 17 42  1  0     0  0
 18 19  1  0     0  0
 18 31  2  0     0  0
 19 32  2  0     0  0
 20 21  1  0     0  0
 20 33  2  0     0  0
 21 34  2  0     0  0
 24 29  1  0     0  0
 25 29  2  0     0  0
 25 33  1  0     0  0
 26 28  2  0     0  0
 27 28  1  0     0  0
 29 34  1  0     0  0
 30 31  1  0     0  0
 30 35  2  0     0  0
 30 36  1  0     0  0
 32 35  1  0     0  0
 37 40  1  0     0  0
 38 43  1  0     0  0
 41 43  1  0     0  0
 42 44  1  0     0  0
M  END
> <standard_type>
pIC50

> <# Confs.>
25

> <canonical_smiles>
FC1=CC=C(C(NC2=NC=C(NC3=NC=NC4=C3C=C(OC)C(OCCCN(CC)CCOP(O)(O)=O)=C4)C=N2)=O)C=C1Cl

> <standard_relation>
=

> <Publication_ID>
nan

> <predicted_activity_value>
7.721246399047171

> <actual_activity_value>
7.920818753952375

> <Compound>
24

> <standard_units>
nM

> hash
9306251387136053245

$$$$
24_
XXILIB    08252103423D 0   0.00000     0.00000

 44 47  0     1  0            999 V2000
  -12.9963   -0.7626   11.4792 Cl  0  0  0  0  0  1           0  0  0
   -1.8598    4.1590   -4.0594 P   0  0  1  0  0  5           0  0  0
  -11.4794   -2.1552   13.6011 F   0  0  0  0  0  1           0  0  0
   -2.1161    5.6343   -4.1555 O   0  0  0  0  0  2           0  0  0
   -0.3021    3.7282   -3.9858 O   0  0  0  0  0  2           0  0  0
   -2.5079    3.4325   -2.7685 O   0  0  0  0  0  2           0  0  0
   -2.4381    3.2903   -5.2952 O   0  0  0  0  0  2           0  0  0
    0.0000    0.0000    0.0000 O   0  0  0  0  0  2           0  0  0
   -2.2963    1.1653    0.4024 O   0  0  0  0  0  2           0  0  0
   -8.6129    0.9436    8.9436 O   0  0  0  0  0  2           0  0  0
   -4.9701   -1.0938    8.3372 N   0  0  0  0  0  3           0  0  0
   -6.3245    0.7307    7.5998 N   0  0  0  0  0  3           0  0  0
   -1.3121   -0.5338    6.2252 N   0  0  0  0  0  3           0  0  0
    0.3913   -1.1343    4.6504 N   0  0  0  0  0  3           0  0  0
   -3.2536    0.6680    5.5540 N   0  0  0  0  0  3           0  0  0
   -7.0377   -0.6967    9.3717 N   0  0  0  0  0  3           0  0  0
    1.9575    0.7940   -3.7409 N   0  0  1  0  0  3           0  0  0
  -11.2873   -0.9499   11.5656 C   0  0  0  0  0  4           0  0  0
  -10.7086   -1.6361   12.6333 C   0  0  0  0  0  4           0  0  0
   -0.4633    0.0000    1.2916 C   0  0  0  0  0  4           0  0  0
   -1.6947    0.6276    1.5052 C   0  0  0  0  0  4           0  0  0
   -6.0823   -0.3314    8.3993 C   0  0  0  0  0  4           0  0  0
   -0.1483   -1.0982    5.8771 C   0  0  0  0  0  4           0  0  0
   -2.0097    0.0805    5.2386 C   0  0  0  0  0  4           0  0  0
   -0.3077   -0.5509    3.6681 C   0  0  0  0  0  4           0  0  0
   -4.0566   -0.7503    7.4009 C   0  0  0  0  0  4           0  0  0
   -5.3722    1.0208    6.6854 C   0  0  0  0  0  4           0  0  0
   -4.1952    0.3114    6.5252 C   0  0  0  0  0  4           0  0  0
   -1.5432    0.0827    3.8992 C   0  0  0  0  0  4           0  0  0
   -9.0968   -0.5822   10.6504 C   0  0  0  0  0  4           0  0  0
  -10.4811   -0.4167   10.5615 C   0  0  0  0  0  4           0  0  0
   -9.3263   -1.7992   12.7137 C   0  0  0  0  0  4           0  0  0
    0.2090   -0.5796    2.3749 C   0  0  0  0  0  4           0  0  0
   -2.2263    0.6637    2.7994 C   0  0  0  0  0  4           0  0  0
   -8.5108   -1.2710   11.7150 C   0  0  0  0  0  4           0  0  0
   -8.2315   -0.0383    9.5770 C   0  0  0  0  0  4           0  0  0
    0.0166    2.3487   -3.8935 C   0  0  0  0  0  4           0  0  0
    1.4280    0.0000    0.0000 C   0  0  0  0  0  4           0  0  0
   -3.5503    1.8003    0.6414 C   0  0  0  0  0  4           0  0  0
    1.5308    2.1924   -3.8377 C   0  0  0  0  0  4           0  0  0
    1.4673    0.0825   -2.5625 C   0  0  0  0  0  4           0  0  0
    1.8819    0.0407   -4.9911 C   0  0  0  0  0  4           0  0  0
    1.9237    0.7202   -1.2474 C   0  0  0  0  0  4           0  0  0
    2.7568    0.6544   -6.0790 C   0  0  0  0  0  4           0  0  0
  1 18  1  0     0  0
  2  4  2  0     0  0
  2  5  1  0     0  0
  2  6  1  0     0  0
  2  7  1  0     0  0
  3 19  1  0     0  0
  5 37  1  0     0  0
  8 20  1  0     0  0
  8 38  1  0     0  0
  9 21  1  0     0  0
  9 39  1  0     0  0
 10 36  2  0     0  0
 11 22  2  0     0  0
 11 26  1  0     0  0
 12 22  1  0     0  0
 12 27  2  0     0  0
 13 23  1  0     0  0
 13 24  2  0     0  0
 14 23  2  0     0  0
 14 25  1  0     0  0
 15 24  1  0     0  0
 15 28  1  0     0  0
 16 22  1  0     0  0
 16 36  1  0     0  0
 17 40  1  0     0  0
 17 41  1  0     0  0
 17 42  1  0     0  0
 18 19  1  0     0  0
 18 31  2  0     0  0
 19 32  2  0     0  0
 20 21  1  0     0  0
 20 33  2  0     0  0
 21 34  2  0     0  0
 24 29  1  0     0  0
 25 29  2  0     0  0
 25 33  1  0     0  0
 26 28  2  0     0  0
 27 28  1  0     0  0
 29 34  1  0     0  0
 30 31  1  0     0  0
 30 35  2  0     0  0
 30 36  1  0     0  0
 32 35  1  0     0  0
 37 40  1  0     0  0
 38 43  1  0     0  0
 41 43  1  0     0  0
 42 44  1  0     0  0
M  END
> <standard_type>
pIC50

> <# Confs.>
25

> <canonical_smiles>
FC1=CC=C(C(NC2=NC=C(NC3=NC=NC4=C3C=C(OC)C(OCCCN(CC)CCOP(O)(O)=O)=C4)C=N2)=O)C=C1Cl

> <standard_relation>
=

> <Publication_ID>
nan

> <predicted_activity_value>
7.721246399047171

> <actual_activity_value>
7.920818753952375

> <Compound>
24

> <standard_units>
nM

> hash
9306251387136053245

$$$$
24_
XXILIB    08252103423D 0   0.00000     0.00000

 44 47  0     1  0            999 V2000
   -8.4411   -7.6193   13.1130 Cl  0  0  0  0  0  1           0  0  0
   -1.8598   -1.4360   -5.6315 P   0  0  1  0  0  5           0  0  0
   -6.7981   -6.4587   15.2801 F   0  0  0  0  0  1           0  0  0
   -2.6259   -2.7218   -5.7382 O   0  0  0  0  0  2           0  0  0
   -0.3021   -1.5877   -5.2216 O   0  0  0  0  0  2           0  0  0
   -1.8037   -0.5561   -6.9867 O   0  0  0  0  0  2           0  0  0
   -2.4410   -0.3911   -4.5422 O   0  0  0  0  0  2           0  0  0
    0.0000    0.0000    0.0000 O   0  0  0  0  0  2           0  0  0
   -2.2929   -1.1715    0.4037 O   0  0  0  0  0  2           0  0  0
   -6.9876   -3.9344    9.5266 O   0  0  0  0  0  2           0  0  0
   -3.2014   -2.1608    8.9716 N   0  0  0  0  0  3           0  0  0
   -5.3259   -2.5682    7.9580 N   0  0  0  0  0  3           0  0  0
   -1.2849    0.4836    6.2350 N   0  0  0  0  0  3           0  0  0
    0.4037    1.1115    4.6548 N   0  0  0  0  0  3           0  0  0
   -3.2392   -0.6944    5.5592 N   0  0  0  0  0  3           0  0  0
   -4.8411   -3.3452   10.1596 N   0  0  0  0  0  3           0  0  0
    1.9575   -2.8427   -2.5581 N   0  0  1  0  0  3           0  0  0
   -7.3502   -6.2945   12.9777 C   0  0  0  0  0  4           0  0  0
   -6.6383   -5.8537   14.0932 C   0  0  0  0  0  4           0  0  0
   -0.4633    0.0000    1.2916 C   0  0  0  0  0  4           0  0  0
   -1.6947   -0.6276    1.5052 C   0  0  0  0  0  4           0  0  0
   -4.4522   -2.6680    8.9839 C   0  0  0  0  0  4           0  0  0
   -0.1212    1.0483    5.8868 C   0  0  0  0  0  4           0  0  0
   -2.0174   -0.0663    5.2359 C   0  0  0  0  0  4           0  0  0
   -0.3051    0.5462    3.6690 C   0  0  0  0  0  4           0  0  0
   -2.8238   -1.5182    7.8431 C   0  0  0  0  0  4           0  0  0
   -4.8867   -1.9143    6.8596 C   0  0  0  0  0  4           0  0  0
   -3.6273   -1.3563    6.7289 C   0  0  0  0  0  4           0  0  0
   -1.5465   -0.0766    3.8980 C   0  0  0  0  0  4           0  0  0
   -6.2845   -4.5927   11.6591 C   0  0  0  0  0  4           0  0  0
   -7.1763   -5.6644   11.7468 C   0  0  0  0  0  4           0  0  0
   -5.7481   -4.7850   13.9971 C   0  0  0  0  0  4           0  0  0
    0.2115    0.5750    2.3758 C   0  0  0  0  0  4           0  0  0
   -2.2258   -0.6645    2.7996 C   0  0  0  0  0  4           0  0  0
   -5.5658   -4.1481   12.7713 C   0  0  0  0  0  4           0  0  0
   -6.0753   -3.9292   10.3503 C   0  0  0  0  0  4           0  0  0
    0.0166   -2.1975   -3.9808 C   0  0  0  0  0  4           0  0  0
    1.4280    0.0000    0.0000 C   0  0  0  0  0  4           0  0  0
   -3.5470   -1.8064    0.6425 C   0  0  0  0  0  4           0  0  0
    1.5308   -2.2274   -3.8175 C   0  0  0  0  0  4           0  0  0
    1.4673   -2.1779   -1.3527 C   0  0  0  0  0  4           0  0  0
    1.8819   -4.3020   -2.5308 C   0  0  0  0  0  4           0  0  0
    1.9237   -0.7202   -1.2474 C   0  0  0  0  0  4           0  0  0
    2.7568   -4.9374   -3.6062 C   0  0  0  0  0  4           0  0  0
  1 18  1  0     0  0
  2  4  2  0     0  0
  2  5  1  0     0  0
  2  6  1  0     0  0
  2  7  1  0     0  0
  3 19  1  0     0  0
  5 37  1  0     0  0
  8 20  1  0     0  0
  8 38  1  0     0  0
  9 21  1  0     0  0
  9 39  1  0     0  0
 10 36  2  0     0  0
 11 22  2  0     0  0
 11 26  1  0     0  0
 12 22  1  0     0  0
 12 27  2  0     0  0
 13 23  1  0     0  0
 13 24  2  0     0  0
 14 23  2  0     0  0
 14 25  1  0     0  0
 15 24  1  0     0  0
 15 28  1  0     0  0
 16 22  1  0     0  0
 16 36  1  0     0  0
 17 40  1  0     0  0
 17 41  1  0     0  0
 17 42  1  0     0  0
 18 19  1  0     0  0
 18 31  2  0     0  0
 19 32  2  0     0  0
 20 21  1  0     0  0
 20 33  2  0     0  0
 21 34  2  0     0  0
 24 29  1  0     0  0
 25 29  2  0     0  0
 25 33  1  0     0  0
 26 28  2  0     0  0
 27 28  1  0     0  0
 29 34  1  0     0  0
 30 31  1  0     0  0
 30 35  2  0     0  0
 30 36  1  0     0  0
 32 35  1  0     0  0
 37 40  1  0     0  0
 38 43  1  0     0  0
 41 43  1  0     0  0
 42 44  1  0     0  0
M  END
> <standard_type>
pIC50

> <# Confs.>
25

> <canonical_smiles>
FC1=CC=C(C(NC2=NC=C(NC3=NC=NC4=C3C=C(OC)C(OCCCN(CC)CCOP(O)(O)=O)=C4)C=N2)=O)C=C1Cl

> <standard_relation>
=

> <Publication_ID>
nan

> <predicted_activity_value>
7.721246399047171

> <actual_activity_value>
7.920818753952375

> <Compound>
24

> <standard_units>
nM

> hash
9306251387136053245

$$$$
24_
XXILIB    08252103423D 0   0.00000     0.00000

 44 47  0     1  0            999 V2000
   -4.9589   -4.2007   15.4027 Cl  0  0  0  0  0  1           0  0  0
    3.7217    1.2005   -6.4557 P   0  0  1  0  0  5           0  0  0
   -6.9300   -6.4017   15.2879 F   0  0  0  0  0  1           0  0  0
    5.1444    0.9691   -6.8729 O   0  0  0  0  0  2           0  0  0
    3.5130    1.6357   -4.9114 O   0  0  0  0  0  2           0  0  0
    2.9454    2.3573   -7.2762 O   0  0  0  0  0  2           0  0  0
    2.7502   -0.0815   -6.6255 O   0  0  0  0  0  2           0  0  0
    0.0000    0.0000    0.0000 O   0  0  0  0  0  2           0  0  0
   -2.2929   -1.1715    0.4037 O   0  0  0  0  0  2           0  0  0
   -6.9876   -3.9344    9.5266 O   0  0  0  0  0  2           0  0  0
   -3.2014   -2.1608    8.9716 N   0  0  0  0  0  3           0  0  0
   -5.3259   -2.5682    7.9580 N   0  0  0  0  0  3           0  0  0
   -1.2849    0.4836    6.2350 N   0  0  0  0  0  3           0  0  0
    0.4037    1.1115    4.6548 N   0  0  0  0  0  3           0  0  0
   -3.2392   -0.6944    5.5592 N   0  0  0  0  0  3           0  0  0
   -4.8411   -3.3452   10.1596 N   0  0  0  0  0  3           0  0  0
    4.0767    0.5294   -1.4138 N   0  0  1  0  0  3           0  0  0
   -5.8051   -4.7498   14.0078 C   0  0  0  0  0  4           0  0  0
   -6.7111   -5.8058   14.1059 C   0  0  0  0  0  4           0  0  0
   -0.4633    0.0000    1.2916 C   0  0  0  0  0  4           0  0  0
   -1.6947   -0.6276    1.5052 C   0  0  0  0  0  4           0  0  0
   -4.4522   -2.6680    8.9839 C   0  0  0  0  0  4           0  0  0
   -0.1212    1.0483    5.8868 C   0  0  0  0  0  4           0  0  0
   -2.0174   -0.0663    5.2359 C   0  0  0  0  0  4           0  0  0
   -0.3051    0.5462    3.6690 C   0  0  0  0  0  4           0  0  0
   -2.8238   -1.5182    7.8431 C   0  0  0  0  0  4           0  0  0
   -4.8867   -1.9143    6.8596 C   0  0  0  0  0  4           0  0  0
   -3.6273   -1.3563    6.7289 C   0  0  0  0  0  4           0  0  0
   -1.5465   -0.0766    3.8980 C   0  0  0  0  0  4           0  0  0
   -6.2845   -4.5927   11.6591 C   0  0  0  0  0  4           0  0  0
   -5.5856   -4.1324   12.7777 C   0  0  0  0  0  4           0  0  0
   -7.4067   -6.2577   12.9853 C   0  0  0  0  0  4           0  0  0
    0.2115    0.5750    2.3758 C   0  0  0  0  0  4           0  0  0
   -2.2258   -0.6645    2.7996 C   0  0  0  0  0  4           0  0  0
   -7.1957   -5.6474   11.7507 C   0  0  0  0  0  4           0  0  0
   -6.0753   -3.9292   10.3503 C   0  0  0  0  0  4           0  0  0
    3.9548    0.7531   -3.8922 C   0  0  0  0  0  4           0  0  0
    1.4280   -0.0000   -0.0000 C   0  0  0  0  0  4           0  0  0
   -3.5470   -1.8064    0.6425 C   0  0  0  0  0  4           0  0  0
    3.6534    1.3736   -2.5341 C   0  0  0  0  0  4           0  0  0
    3.4486   -0.7892   -1.3670 C   0  0  0  0  0  4           0  0  0
    5.5137    0.5371   -1.1474 C   0  0  0  0  0  4           0  0  0
    1.9237   -0.7202   -1.2474 C   0  0  0  0  0  4           0  0  0
    6.0229    1.9351   -0.8130 C   0  0  0  0  0  4           0  0  0
  1 18  1  0     0  0
  2  4  2  0     0  0
  2  5  1  0     0  0
  2  6  1  0     0  0
  2  7  1  0     0  0
  3 19  1  0     0  0
  5 37  1  0     0  0
  8 20  1  0     0  0
  8 38  1  0     0  0
  9 21  1  0     0  0
  9 39  1  0     0  0
 10 36  2  0     0  0
 11 22  2  0     0  0
 11 26  1  0     0  0
 12 22  1  0     0  0
 12 27  2  0     0  0
 13 23  1  0     0  0
 13 24  2  0     0  0
 14 23  2  0     0  0
 14 25  1  0     0  0
 15 24  1  0     0  0
 15 28  1  0     0  0
 16 22  1  0     0  0
 16 36  1  0     0  0
 17 40  1  0     0  0
 17 41  1  0     0  0
 17 42  1  0     0  0
 18 19  1  0     0  0
 18 31  2  0     0  0
 19 32  2  0     0  0
 20 21  1  0     0  0
 20 33  2  0     0  0
 21 34  2  0     0  0
 24 29  1  0     0  0
 25 29  2  0     0  0
 25 33  1  0     0  0
 26 28  2  0     0  0
 27 28  1  0     0  0
 29 34  1  0     0  0
 30 31  1  0     0  0
 30 35  2  0     0  0
 30 36  1  0     0  0
 32 35  1  0     0  0
 37 40  1  0     0  0
 38 43  1  0     0  0
 41 43  1  0     0  0
 42 44  1  0     0  0
M  END
> <standard_type>
pIC50

> <# Confs.>
25

> <canonical_smiles>
FC1=CC=C(C(NC2=NC=C(NC3=NC=NC4=C3C=C(OC)C(OCCCN(CC)CCOP(O)(O)=O)=C4)C=N2)=O)C=C1Cl

> <standard_relation>
=

> <Publication_ID>
nan

> <predicted_activity_value>
7.721246399047171

> <actual_activity_value>
7.920818753952375

> <Compound>
24

> <standard_units>
nM

> hash
9306251387136053245

$$$$
24_
XXILIB    08252103423D 0   0.00000     0.00000

 44 47  0     1  0            999 V2000
   -4.9589   -4.2007   15.4027 Cl  0  0  0  0  0  1           0  0  0
    3.7217    1.2005   -6.4557 P   0  0  1  0  0  5           0  0  0
   -6.9300   -6.4017   15.2879 F   0  0  0  0  0  1           0  0  0
    3.2291    2.1857   -7.4746 O   0  0  0  0  0  2           0  0  0
    3.5130    1.6357   -4.9114 O   0  0  0  0  0  2           0  0  0
    3.0345   -0.2613   -6.5261 O   0  0  0  0  0  2           0  0  0
    5.3015    0.8656   -6.5475 O   0  0  0  0  0  2           0  0  0
    0.0000    0.0000    0.0000 O   0  0  0  0  0  2           0  0  0
   -2.2929   -1.1715    0.4037 O   0  0  0  0  0  2           0  0  0
   -6.9876   -3.9344    9.5266 O   0  0  0  0  0  2           0  0  0
   -3.2014   -2.1608    8.9716 N   0  0  0  0  0  3           0  0  0
   -5.3259   -2.5682    7.9580 N   0  0  0  0  0  3           0  0  0
   -1.2849    0.4836    6.2350 N   0  0  0  0  0  3           0  0  0
    0.4037    1.1115    4.6548 N   0  0  0  0  0  3           0  0  0
   -3.2392   -0.6944    5.5592 N   0  0  0  0  0  3           0  0  0
   -4.8411   -3.3452   10.1596 N   0  0  0  0  0  3           0  0  0
    4.0767    0.5294   -1.4138 N   0  0  1  0  0  3           0  0  0
   -5.8051   -4.7498   14.0078 C   0  0  0  0  0  4           0  0  0
   -6.7111   -5.8058   14.1059 C   0  0  0  0  0  4           0  0  0
   -0.4633    0.0000    1.2916 C   0  0  0  0  0  4           0  0  0
   -1.6947   -0.6276    1.5052 C   0  0  0  0  0  4           0  0  0
   -4.4522   -2.6680    8.9839 C   0  0  0  0  0  4           0  0  0
   -0.1212    1.0483    5.8868 C   0  0  0  0  0  4           0  0  0
   -2.0174   -0.0663    5.2359 C   0  0  0  0  0  4           0  0  0
   -0.3051    0.5462    3.6690 C   0  0  0  0  0  4           0  0  0
   -2.8238   -1.5182    7.8431 C   0  0  0  0  0  4           0  0  0
   -4.8867   -1.9143    6.8596 C   0  0  0  0  0  4           0  0  0
   -3.6273   -1.3563    6.7289 C   0  0  0  0  0  4           0  0  0
   -1.5465   -0.0766    3.8980 C   0  0  0  0  0  4           0  0  0
   -6.2845   -4.5927   11.6591 C   0  0  0  0  0  4           0  0  0
   -5.5856   -4.1324   12.7777 C   0  0  0  0  0  4           0  0  0
   -7.4067   -6.2577   12.9853 C   0  0  0  0  0  4           0  0  0
    0.2115    0.5750    2.3758 C   0  0  0  0  0  4           0  0  0
   -2.2258   -0.6645    2.7996 C   0  0  0  0  0  4           0  0  0
   -7.1957   -5.6474   11.7507 C   0  0  0  0  0  4           0  0  0
   -6.0753   -3.9292   10.3503 C   0  0  0  0  0  4           0  0  0
    3.9548    0.7531   -3.8922 C   0  0  0  0  0  4           0  0  0
    1.4280   -0.0000   -0.0000 C   0  0  0  0  0  4           0  0  0
   -3.5470   -1.8064    0.6425 C   0  0  0  0  0  4           0  0  0
    3.6534    1.3736   -2.5341 C   0  0  0  0  0  4           0  0  0
    3.4486   -0.7892   -1.3670 C   0  0  0  0  0  4           0  0  0
    5.5137    0.5371   -1.1474 C   0  0  0  0  0  4           0  0  0
    1.9237   -0.7202   -1.2474 C   0  0  0  0  0  4           0  0  0
    6.0229    1.9351   -0.8130 C   0  0  0  0  0  4           0  0  0
  1 18  1  0     0  0
  2  4  2  0     0  0
  2  5  1  0     0  0
  2  6  1  0     0  0
  2  7  1  0     0  0
  3 19  1  0     0  0
  5 37  1  0     0  0
  8 20  1  0     0  0
  8 38  1  0     0  0
  9 21  1  0     0  0
  9 39  1  0     0  0
 10 36  2  0     0  0
 11 22  2  0     0  0
 11 26  1  0     0  0
 12 22  1  0     0  0
 12 27  2  0     0  0
 13 23  1  0     0  0
 13 24  2  0     0  0
 14 23  2  0     0  0
 14 25  1  0     0  0
 15 24  1  0     0  0
 15 28  1  0     0  0
 16 22  1  0     0  0
 16 36  1  0     0  0
 17 40  1  0     0  0
 17 41  1  0     0  0
 17 42  1  0     0  0
 18 19  1  0     0  0
 18 31  2  0     0  0
 19 32  2  0     0  0
 20 21  1  0     0  0
 20 33  2  0     0  0
 21 34  2  0     0  0
 24 29  1  0     0  0
 25 29  2  0     0  0
 25 33  1  0     0  0
 26 28  2  0     0  0
 27 28  1  0     0  0
 29 34  1  0     0  0
 30 31  1  0     0  0
 30 35  2  0     0  0
 30 36  1  0     0  0
 32 35  1  0     0  0
 37 40  1  0     0  0
 38 43  1  0     0  0
 41 43  1  0     0  0
 42 44  1  0     0  0
M  END
> <standard_type>
pIC50

> <# Confs.>
25

> <canonical_smiles>
FC1=CC=C(C(NC2=NC=C(NC3=NC=NC4=C3C=C(OC)C(OCCCN(CC)CCOP(O)(O)=O)=C4)C=N2)=O)C=C1Cl

> <standard_relation>
=

> <Publication_ID>
nan

> <predicted_activity_value>
7.721246399047171

> <actual_activity_value>
7.920818753952375

> <Compound>
24

> <standard_units>
nM

> hash
9306251387136053245

$$$$
24_
XXILIB    08252103423D 0   0.00000     0.00000

 44 47  0     1  0            999 V2000
   -8.4411   -7.6193   13.1130 Cl  0  0  0  0  0  1           0  0  0
    3.7217    1.2005   -6.4557 P   0  0  1  0  0  5           0  0  0
   -6.7981   -6.4587   15.2801 F   0  0  0  0  0  1           0  0  0
    5.1444    0.9691   -6.8729 O   0  0  0  0  0  2           0  0  0
    3.5130    1.6357   -4.9114 O   0  0  0  0  0  2           0  0  0
    2.9454    2.3573   -7.2762 O   0  0  0  0  0  2           0  0  0
    2.7502   -0.0815   -6.6255 O   0  0  0  0  0  2           0  0  0
    0.0000    0.0000    0.0000 O   0  0  0  0  0  2           0  0  0
   -2.2929   -1.1715    0.4037 O   0  0  0  0  0  2           0  0  0
   -6.9876   -3.9344    9.5266 O   0  0  0  0  0  2           0  0  0
   -3.2014   -2.1608    8.9716 N   0  0  0  0  0  3           0  0  0
   -5.3259   -2.5682    7.9580 N   0  0  0  0  0  3           0  0  0
   -1.2849    0.4836    6.2350 N   0  0  0  0  0  3           0  0  0
    0.4037    1.1115    4.6548 N   0  0  0  0  0  3           0  0  0
   -3.2392   -0.6944    5.5592 N   0  0  0  0  0  3           0  0  0
   -4.8411   -3.3452   10.1596 N   0  0  0  0  0  3           0  0  0
    4.0767    0.5294   -1.4138 N   0  0  1  0  0  3           0  0  0
   -7.3502   -6.2945   12.9777 C   0  0  0  0  0  4           0  0  0
   -6.6383   -5.8537   14.0932 C   0  0  0  0  0  4           0  0  0
   -0.4633    0.0000    1.2916 C   0  0  0  0  0  4           0  0  0
   -1.6947   -0.6276    1.5052 C   0  0  0  0  0  4           0  0  0
   -4.4522   -2.6680    8.9839 C   0  0  0  0  0  4           0  0  0
   -0.1212    1.0483    5.8868 C   0  0  0  0  0  4           0  0  0
   -2.0174   -0.0663    5.2359 C   0  0  0  0  0  4           0  0  0
   -0.3051    0.5462    3.6690 C   0  0  0  0  0  4           0  0  0
   -2.8238   -1.5182    7.8431 C   0  0  0  0  0  4           0  0  0
   -4.8867   -1.9143    6.8596 C   0  0  0  0  0  4           0  0  0
   -3.6273   -1.3563    6.7289 C   0  0  0  0  0  4           0  0  0
   -1.5465   -0.0766    3.8980 C   0  0  0  0  0  4           0  0  0
   -6.2845   -4.5927   11.6591 C   0  0  0  0  0  4           0  0  0
   -7.1763   -5.6644   11.7468 C   0  0  0  0  0  4           0  0  0
   -5.7481   -4.7850   13.9971 C   0  0  0  0  0  4           0  0  0
    0.2115    0.5750    2.3758 C   0  0  0  0  0  4           0  0  0
   -2.2258   -0.6645    2.7996 C   0  0  0  0  0  4           0  0  0
   -5.5658   -4.1481   12.7713 C   0  0  0  0  0  4           0  0  0
   -6.0753   -3.9292   10.3503 C   0  0  0  0  0  4           0  0  0
    3.9548    0.7531   -3.8922 C   0  0  0  0  0  4           0  0  0
    1.4280   -0.0000   -0.0000 C   0  0  0  0  0  4           0  0  0
   -3.5470   -1.8064    0.6425 C   0  0  0  0  0  4           0  0  0
    3.6534    1.3736   -2.5341 C   0  0  0  0  0  4           0  0  0
    3.4486   -0.7892   -1.3670 C   0  0  0  0  0  4           0  0  0
    5.5137    0.5371   -1.1474 C   0  0  0  0  0  4           0  0  0
    1.9237   -0.7202   -1.2474 C   0  0  0  0  0  4           0  0  0
    6.0229    1.9351   -0.8130 C   0  0  0  0  0  4           0  0  0
  1 18  1  0     0  0
  2  4  2  0     0  0
  2  5  1  0     0  0
  2  6  1  0     0  0
  2  7  1  0     0  0
  3 19  1  0     0  0
  5 37  1  0     0  0
  8 20  1  0     0  0
  8 38  1  0     0  0
  9 21  1  0     0  0
  9 39  1  0     0  0
 10 36  2  0     0  0
 11 22  2  0     0  0
 11 26  1  0     0  0
 12 22  1  0     0  0
 12 27  2  0     0  0
 13 23  1  0     0  0
 13 24  2  0     0  0
 14 23  2  0     0  0
 14 25  1  0     0  0
 15 24  1  0     0  0
 15 28  1  0     0  0
 16 22  1  0     0  0
 16 36  1  0     0  0
 17 40  1  0     0  0
 17 41  1  0     0  0
 17 42  1  0     0  0
 18 19  1  0     0  0
 18 31  2  0     0  0
 19 32  2  0     0  0
 20 21  1  0     0  0
 20 33  2  0     0  0
 21 34  2  0     0  0
 24 29  1  0     0  0
 25 29  2  0     0  0
 25 33  1  0     0  0
 26 28  2  0     0  0
 27 28  1  0     0  0
 29 34  1  0     0  0
 30 31  1  0     0  0
 30 35  2  0     0  0
 30 36  1  0     0  0
 32 35  1  0     0  0
 37 40  1  0     0  0
 38 43  1  0     0  0
 41 43  1  0     0  0
 42 44  1  0     0  0
M  END
> <standard_type>
pIC50

> <# Confs.>
25

> <canonical_smiles>
FC1=CC=C(C(NC2=NC=C(NC3=NC=NC4=C3C=C(OC)C(OCCCN(CC)CCOP(O)(O)=O)=C4)C=N2)=O)C=C1Cl

> <standard_relation>
=

> <Publication_ID>
nan

> <predicted_activity_value>
7.721246399047171

> <actual_activity_value>
7.920818753952375

> <Compound>
24

> <standard_units>
nM

> hash
9306251387136053245

$$$$
24_
XXILIB    08252103423D 0   0.00000     0.00000

 44 47  0     1  0            999 V2000
   -8.4411   -7.6193   13.1130 Cl  0  0  0  0  0  1           0  0  0
    3.7217    1.2005   -6.4557 P   0  0  1  0  0  5           0  0  0
   -6.7981   -6.4587   15.2801 F   0  0  0  0  0  1           0  0  0
    3.2291    2.1857   -7.4746 O   0  0  0  0  0  2           0  0  0
    3.5130    1.6357   -4.9114 O   0  0  0  0  0  2           0  0  0
    3.0345   -0.2613   -6.5261 O   0  0  0  0  0  2           0  0  0
    5.3015    0.8656   -6.5475 O   0  0  0  0  0  2           0  0  0
    0.0000    0.0000    0.0000 O   0  0  0  0  0  2           0  0  0
   -2.2929   -1.1715    0.4037 O   0  0  0  0  0  2           0  0  0
   -6.9876   -3.9344    9.5266 O   0  0  0  0  0  2           0  0  0
   -3.2014   -2.1608    8.9716 N   0  0  0  0  0  3           0  0  0
   -5.3259   -2.5682    7.9580 N   0  0  0  0  0  3           0  0  0
   -1.2849    0.4836    6.2350 N   0  0  0  0  0  3           0  0  0
    0.4037    1.1115    4.6548 N   0  0  0  0  0  3           0  0  0
   -3.2392   -0.6944    5.5592 N   0  0  0  0  0  3           0  0  0
   -4.8411   -3.3452   10.1596 N   0  0  0  0  0  3           0  0  0
    4.0767    0.5294   -1.4138 N   0  0  1  0  0  3           0  0  0
   -7.3502   -6.2945   12.9777 C   0  0  0  0  0  4           0  0  0
   -6.6383   -5.8537   14.0932 C   0  0  0  0  0  4           0  0  0
   -0.4633    0.0000    1.2916 C   0  0  0  0  0  4           0  0  0
   -1.6947   -0.6276    1.5052 C   0  0  0  0  0  4           0  0  0
   -4.4522   -2.6680    8.9839 C   0  0  0  0  0  4           0  0  0
   -0.1212    1.0483    5.8868 C   0  0  0  0  0  4           0  0  0
   -2.0174   -0.0663    5.2359 C   0  0  0  0  0  4           0  0  0
   -0.3051    0.5462    3.6690 C   0  0  0  0  0  4           0  0  0
   -2.8238   -1.5182    7.8431 C   0  0  0  0  0  4           0  0  0
   -4.8867   -1.9143    6.8596 C   0  0  0  0  0  4           0  0  0
   -3.6273   -1.3563    6.7289 C   0  0  0  0  0  4           0  0  0
   -1.5465   -0.0766    3.8980 C   0  0  0  0  0  4           0  0  0
   -6.2845   -4.5927   11.6591 C   0  0  0  0  0  4           0  0  0
   -7.1763   -5.6644   11.7468 C   0  0  0  0  0  4           0  0  0
   -5.7481   -4.7850   13.9971 C   0  0  0  0  0  4           0  0  0
    0.2115    0.5750    2.3758 C   0  0  0  0  0  4           0  0  0
   -2.2258   -0.6645    2.7996 C   0  0  0  0  0  4           0  0  0
   -5.5658   -4.1481   12.7713 C   0  0  0  0  0  4           0  0  0
   -6.0753   -3.9292   10.3503 C   0  0  0  0  0  4           0  0  0
    3.9548    0.7531   -3.8922 C   0  0  0  0  0  4           0  0  0
    1.4280   -0.0000   -0.0000 C   0  0  0  0  0  4           0  0  0
   -3.5470   -1.8064    0.6425 C   0  0  0  0  0  4           0  0  0
    3.6534    1.3736   -2.5341 C   0  0  0  0  0  4           0  0  0
    3.4486   -0.7892   -1.3670 C   0  0  0  0  0  4           0  0  0
    5.5137    0.5371   -1.1474 C   0  0  0  0  0  4           0  0  0
    1.9237   -0.7202   -1.2474 C   0  0  0  0  0  4           0  0  0
    6.0229    1.9351   -0.8130 C   0  0  0  0  0  4           0  0  0
  1 18  1  0     0  0
  2  4  2  0     0  0
  2  5  1  0     0  0
  2  6  1  0     0  0
  2  7  1  0     0  0
  3 19  1  0     0  0
  5 37  1  0     0  0
  8 20  1  0     0  0
  8 38  1  0     0  0
  9 21  1  0     0  0
  9 39  1  0     0  0
 10 36  2  0     0  0
 11 22  2  0     0  0
 11 26  1  0     0  0
 12 22  1  0     0  0
 12 27  2  0     0  0
 13 23  1  0     0  0
 13 24  2  0     0  0
 14 23  2  0     0  0
 14 25  1  0     0  0
 15 24  1  0     0  0
 15 28  1  0     0  0
 16 22  1  0     0  0
 16 36  1  0     0  0
 17 40  1  0     0  0
 17 41  1  0     0  0
 17 42  1  0     0  0
 18 19  1  0     0  0
 18 31  2  0     0  0
 19 32  2  0     0  0
 20 21  1  0     0  0
 20 33  2  0     0  0
 21 34  2  0     0  0
 24 29  1  0     0  0
 25 29  2  0     0  0
 25 33  1  0     0  0
 26 28  2  0     0  0
 27 28  1  0     0  0
 29 34  1  0     0  0
 30 31  1  0     0  0
 30 35  2  0     0  0
 30 36  1  0     0  0
 32 35  1  0     0  0
 37 40  1  0     0  0
 38 43  1  0     0  0
 41 43  1  0     0  0
 42 44  1  0     0  0
M  END
> <standard_type>
pIC50

> <# Confs.>
25

> <canonical_smiles>
FC1=CC=C(C(NC2=NC=C(NC3=NC=NC4=C3C=C(OC)C(OCCCN(CC)CCOP(O)(O)=O)=C4)C=N2)=O)C=C1Cl

> <standard_relation>
=

> <Publication_ID>
nan

> <predicted_activity_value>
7.721246399047171

> <actual_activity_value>
7.920818753952375

> <Compound>
24

> <standard_units>
nM

> hash
9306251387136053245

$$$$
24_
XXILIB    08252103423D 0   0.00000     0.00000

 44 47  0     1  0            999 V2000
   -4.9589   -4.2007   15.4027 Cl  0  0  0  0  0  1           0  0  0
   -1.8598   -4.1590   -4.0594 P   0  0  1  0  0  5           0  0  0
   -6.9300   -6.4017   15.2879 F   0  0  0  0  0  1           0  0  0
   -2.6977   -3.7487   -2.8842 O   0  0  0  0  0  2           0  0  0
   -0.3021   -3.7282   -3.9858 O   0  0  0  0  0  2           0  0  0
   -1.7928   -5.7513   -4.3319 O   0  0  0  0  0  2           0  0  0
   -2.3530   -3.5663   -5.4812 O   0  0  0  0  0  2           0  0  0
    0.0000    0.0000    0.0000 O   0  0  0  0  0  2           0  0  0
   -2.2929   -1.1715    0.4037 O   0  0  0  0  0  2           0  0  0
   -6.9876   -3.9344    9.5266 O   0  0  0  0  0  2           0  0  0
   -3.2014   -2.1608    8.9716 N   0  0  0  0  0  3           0  0  0
   -5.3259   -2.5682    7.9580 N   0  0  0  0  0  3           0  0  0
   -1.2849    0.4836    6.2350 N   0  0  0  0  0  3           0  0  0
    0.4037    1.1115    4.6548 N   0  0  0  0  0  3           0  0  0
   -3.2392   -0.6944    5.5592 N   0  0  0  0  0  3           0  0  0
   -4.8411   -3.3452   10.1596 N   0  0  0  0  0  3           0  0  0
    1.9575   -0.7940   -3.7409 N   0  0  1  0  0  3           0  0  0
   -5.8051   -4.7498   14.0078 C   0  0  0  0  0  4           0  0  0
   -6.7111   -5.8058   14.1059 C   0  0  0  0  0  4           0  0  0
   -0.4633    0.0000    1.2916 C   0  0  0  0  0  4           0  0  0
   -1.6947   -0.6276    1.5052 C   0  0  0  0  0  4           0  0  0
   -4.4522   -2.6680    8.9839 C   0  0  0  0  0  4           0  0  0
   -0.1212    1.0483    5.8868 C   0  0  0  0  0  4           0  0  0
   -2.0174   -0.0663    5.2359 C   0  0  0  0  0  4           0  0  0
   -0.3051    0.5462    3.6690 C   0  0  0  0  0  4           0  0  0
   -2.8238   -1.5182    7.8431 C   0  0  0  0  0  4           0  0  0
   -4.8867   -1.9143    6.8596 C   0  0  0  0  0  4           0  0  0
   -3.6273   -1.3563    6.7289 C   0  0  0  0  0  4           0  0  0
   -1.5465   -0.0766    3.8980 C   0  0  0  0  0  4           0  0  0
   -6.2845   -4.5927   11.6591 C   0  0  0  0  0  4           0  0  0
   -5.5856   -4.1324   12.7777 C   0  0  0  0  0  4           0  0  0
   -7.4067   -6.2577   12.9853 C   0  0  0  0  0  4           0  0  0
    0.2115    0.5750    2.3758 C   0  0  0  0  0  4           0  0  0
   -2.2258   -0.6645    2.7996 C   0  0  0  0  0  4           0  0  0
   -7.1957   -5.6474   11.7507 C   0  0  0  0  0  4           0  0  0
   -6.0753   -3.9292   10.3503 C   0  0  0  0  0  4           0  0  0
    0.0166   -2.3487   -3.8935 C   0  0  0  0  0  4           0  0  0
    1.4280    0.0000    0.0000 C   0  0  0  0  0  4           0  0  0
   -3.5470   -1.8064    0.6425 C   0  0  0  0  0  4           0  0  0
    1.5308   -2.1924   -3.8377 C   0  0  0  0  0  4           0  0  0
    1.4673   -0.0825   -2.5625 C   0  0  0  0  0  4           0  0  0
    3.3632   -0.5569   -4.0632 C   0  0  0  0  0  4           0  0  0
    1.9237   -0.7202   -1.2474 C   0  0  0  0  0  4           0  0  0
    3.6999   -0.9830   -5.4882 C   0  0  0  0  0  4           0  0  0
  1 18  1  0     0  0
  2  4  2  0     0  0
  2  5  1  0     0  0
  2  6  1  0     0  0
  2  7  1  0     0  0
  3 19  1  0     0  0
  5 37  1  0     0  0
  8 20  1  0     0  0
  8 38  1  0     0  0
  9 21  1  0     0  0
  9 39  1  0     0  0
 10 36  2  0     0  0
 11 22  2  0     0  0
 11 26  1  0     0  0
 12 22  1  0     0  0
 12 27  2  0     0  0
 13 23  1  0     0  0
 13 24  2  0     0  0
 14 23  2  0     0  0
 14 25  1  0     0  0
 15 24  1  0     0  0
 15 28  1  0     0  0
 16 22  1  0     0  0
 16 36  1  0     0  0
 17 40  1  0     0  0
 17 41  1  0     0  0
 17 42  1  0     0  0
 18 19  1  0     0  0
 18 31  2  0     0  0
 19 32  2  0     0  0
 20 21  1  0     0  0
 20 33  2  0     0  0
 21 34  2  0     0  0
 24 29  1  0     0  0
 25 29  2  0     0  0
 25 33  1  0     0  0
 26 28  2  0     0  0
 27 28  1  0     0  0
 29 34  1  0     0  0
 30 31  1  0     0  0
 30 35  2  0     0  0
 30 36  1  0     0  0
 32 35  1  0     0  0
 37 40  1  0     0  0
 38 43  1  0     0  0
 41 43  1  0     0  0
 42 44  1  0     0  0
M  END
> <standard_type>
pIC50

> <# Confs.>
25

> <canonical_smiles>
FC1=CC=C(C(NC2=NC=C(NC3=NC=NC4=C3C=C(OC)C(OCCCN(CC)CCOP(O)(O)=O)=C4)C=N2)=O)C=C1Cl

> <standard_relation>
=

> <Publication_ID>
nan

> <predicted_activity_value>
7.721246399047171

> <actual_activity_value>
7.920818753952375

> <Compound>
24

> <standard_units>
nM

> hash
9306251387136053245

$$$$
24_
XXILIB    08252103423D 0   0.00000     0.00000

 44 47  0     1  0            999 V2000
   -4.9589   -4.2007   15.4027 Cl  0  0  0  0  0  1           0  0  0
    6.4437   -4.2833   -2.2078 P   0  0  1  0  0  5           0  0  0
   -6.9300   -6.4017   15.2879 F   0  0  0  0  0  1           0  0  0
    6.1853   -5.7071   -2.6047 O   0  0  0  0  0  2           0  0  0
    5.4735   -3.6972   -1.0533 O   0  0  0  0  0  2           0  0  0
    7.9258   -3.9893   -1.6325 O   0  0  0  0  0  2           0  0  0
    6.2993   -3.2097   -3.4089 O   0  0  0  0  0  2           0  0  0
    0.0000    0.0000    0.0000 O   0  0  0  0  0  2           0  0  0
   -2.2929   -1.1715    0.4037 O   0  0  0  0  0  2           0  0  0
   -6.9876   -3.9344    9.5266 O   0  0  0  0  0  2           0  0  0
   -3.2014   -2.1608    8.9716 N   0  0  0  0  0  3           0  0  0
   -5.3259   -2.5682    7.9580 N   0  0  0  0  0  3           0  0  0
   -1.2849    0.4836    6.2350 N   0  0  0  0  0  3           0  0  0
    0.4037    1.1115    4.6548 N   0  0  0  0  0  3           0  0  0
   -3.2392   -0.6944    5.5592 N   0  0  0  0  0  3           0  0  0
   -4.8411   -3.3452   10.1596 N   0  0  0  0  0  3           0  0  0
    1.9218   -2.9995   -0.2329 N   0  0  1  0  0  3           0  0  0
   -5.8051   -4.7498   14.0078 C   0  0  0  0  0  4           0  0  0
   -6.7111   -5.8058   14.1059 C   0  0  0  0  0  4           0  0  0
   -0.4633    0.0000    1.2916 C   0  0  0  0  0  4           0  0  0
   -1.6947   -0.6276    1.5052 C   0  0  0  0  0  4           0  0  0
   -4.4522   -2.6680    8.9839 C   0  0  0  0  0  4           0  0  0
   -0.1212    1.0483    5.8868 C   0  0  0  0  0  4           0  0  0
   -2.0174   -0.0663    5.2359 C   0  0  0  0  0  4           0  0  0
   -0.3051    0.5462    3.6690 C   0  0  0  0  0  4           0  0  0
   -2.8238   -1.5182    7.8431 C   0  0  0  0  0  4           0  0  0
   -4.8867   -1.9143    6.8596 C   0  0  0  0  0  4           0  0  0
   -3.6273   -1.3563    6.7289 C   0  0  0  0  0  4           0  0  0
   -1.5465   -0.0766    3.8980 C   0  0  0  0  0  4           0  0  0
   -6.2845   -4.5927   11.6591 C   0  0  0  0  0  4           0  0  0
   -5.5856   -4.1324   12.7777 C   0  0  0  0  0  4           0  0  0
   -7.4067   -6.2577   12.9853 C   0  0  0  0  0  4           0  0  0
    0.2115    0.5750    2.3758 C   0  0  0  0  0  4           0  0  0
   -2.2258   -0.6645    2.7996 C   0  0  0  0  0  4           0  0  0
   -7.1957   -5.6474   11.7507 C   0  0  0  0  0  4           0  0  0
   -6.0753   -3.9292   10.3503 C   0  0  0  0  0  4           0  0  0
    4.0758   -3.6625   -1.2948 C   0  0  0  0  0  4           0  0  0
    1.4280    0.0000   -0.0000 C   0  0  0  0  0  4           0  0  0
   -3.5470   -1.8064    0.6425 C   0  0  0  0  0  4           0  0  0
    3.3764   -3.0755   -0.0755 C   0  0  0  0  0  4           0  0  0
    1.4673   -2.1779   -1.3527 C   0  0  0  0  0  4           0  0  0
    1.2196   -4.2718   -0.0776 C   0  0  0  0  0  4           0  0  0
    1.9237   -0.7202   -1.2474 C   0  0  0  0  0  4           0  0  0
    1.4441   -4.8808    1.3024 C   0  0  0  0  0  4           0  0  0
  1 18  1  0     0  0
  2  4  2  0     0  0
  2  5  1  0     0  0
  2  6  1  0     0  0
  2  7  1  0     0  0
  3 19  1  0     0  0
  5 37  1  0     0  0
  8 20  1  0     0  0
  8 38  1  0     0  0
  9 21  1  0     0  0
  9 39  1  0     0  0
 10 36  2  0     0  0
 11 22  2  0     0  0
 11 26  1  0     0  0
 12 22  1  0     0  0
 12 27  2  0     0  0
 13 23  1  0     0  0
 13 24  2  0     0  0
 14 23  2  0     0  0
 14 25  1  0     0  0
 15 24  1  0     0  0
 15 28  1  0     0  0
 16 22  1  0     0  0
 16 36  1  0     0  0
 17 40  1  0     0  0
 17 41  1  0     0  0
 17 42  1  0     0  0
 18 19  1  0     0  0
 18 31  2  0     0  0
 19 32  2  0     0  0
 20 21  1  0     0  0
 20 33  2  0     0  0
 21 34  2  0     0  0
 24 29  1  0     0  0
 25 29  2  0     0  0
 25 33  1  0     0  0
 26 28  2  0     0  0
 27 28  1  0     0  0
 29 34  1  0     0  0
 30 31  1  0     0  0
 30 35  2  0     0  0
 30 36  1  0     0  0
 32 35  1  0     0  0
 37 40  1  0     0  0
 38 43  1  0     0  0
 41 43  1  0     0  0
 42 44  1  0     0  0
M  END
> <standard_type>
pIC50

> <# Confs.>
25

> <canonical_smiles>
FC1=CC=C(C(NC2=NC=C(NC3=NC=NC4=C3C=C(OC)C(OCCCN(CC)CCOP(O)(O)=O)=C4)C=N2)=O)C=C1Cl

> <standard_relation>
=

> <Publication_ID>
nan

> <predicted_activity_value>
7.721246399047171

> <actual_activity_value>
7.920818753952375

> <Compound>
24

> <standard_units>
nM

> hash
9306251387136053245

$$$$
24_
XXILIB    08252103423D 0   0.00000     0.00000

 44 47  0     1  0            999 V2000
   -8.6337   -2.5614   14.0846 Cl  0  0  0  0  0  1           0  0  0
   -1.8598    4.1590   -4.0594 P   0  0  1  0  0  5           0  0  0
  -11.5076   -2.0216   13.6461 F   0  0  0  0  0  1           0  0  0
   -2.6259    3.6085   -5.2263 O   0  0  0  0  0  2           0  0  0
   -0.3021    3.7282   -3.9858 O   0  0  0  0  0  2           0  0  0
   -1.8037    5.7726   -3.9750 O   0  0  0  0  0  2           0  0  0
   -2.4410    3.7381   -2.6098 O   0  0  0  0  0  2           0  0  0
    0.0000    0.0000    0.0000 O   0  0  0  0  0  2           0  0  0
   -2.2963    1.1653    0.4024 O   0  0  0  0  0  2           0  0  0
   -8.6129    0.9436    8.9436 O   0  0  0  0  0  2           0  0  0
   -4.9701   -1.0938    8.3372 N   0  0  0  0  0  3           0  0  0
   -6.3245    0.7307    7.5998 N   0  0  0  0  0  3           0  0  0
   -1.3121   -0.5338    6.2252 N   0  0  0  0  0  3           0  0  0
    0.3913   -1.1343    4.6504 N   0  0  0  0  0  3           0  0  0
   -3.2536    0.6680    5.5540 N   0  0  0  0  0  3           0  0  0
   -7.0377   -0.6967    9.3717 N   0  0  0  0  0  3           0  0  0
    1.9575    0.7940   -3.7409 N   0  0  1  0  0  3           0  0  0
   -9.3310   -1.7382   12.7432 C   0  0  0  0  0  4           0  0  0
  -10.7121   -1.5564   12.6709 C   0  0  0  0  0  4           0  0  0
   -0.4633    0.0000    1.2916 C   0  0  0  0  0  4           0  0  0
   -1.6947    0.6276    1.5052 C   0  0  0  0  0  4           0  0  0
   -6.0823   -0.3314    8.3993 C   0  0  0  0  0  4           0  0  0
   -0.1483   -1.0982    5.8771 C   0  0  0  0  0  4           0  0  0
   -2.0097    0.0805    5.2386 C   0  0  0  0  0  4           0  0  0
   -0.3077   -0.5509    3.6681 C   0  0  0  0  0  4           0  0  0
   -4.0566   -0.7503    7.4009 C   0  0  0  0  0  4           0  0  0
   -5.3722    1.0208    6.6854 C   0  0  0  0  0  4           0  0  0
   -4.1952    0.3114    6.5252 C   0  0  0  0  0  4           0  0  0
   -1.5432    0.0827    3.8992 C   0  0  0  0  0  4           0  0  0
   -9.0968   -0.5822   10.6504 C   0  0  0  0  0  4           0  0  0
   -8.5101   -1.2489   11.7288 C   0  0  0  0  0  4           0  0  0
  -11.2899   -0.8877   11.5925 C   0  0  0  0  0  4           0  0  0
    0.2090   -0.5796    2.3749 C   0  0  0  0  0  4           0  0  0
   -2.2263    0.6637    2.7994 C   0  0  0  0  0  4           0  0  0
  -10.4787   -0.3935   10.5732 C   0  0  0  0  0  4           0  0  0
   -8.2315   -0.0383    9.5770 C   0  0  0  0  0  4           0  0  0
    0.0166    2.3487   -3.8935 C   0  0  0  0  0  4           0  0  0
    1.4280    0.0000    0.0000 C   0  0  0  0  0  4           0  0  0
   -3.5503    1.8003    0.6414 C   0  0  0  0  0  4           0  0  0
    1.5308    2.1924   -3.8377 C   0  0  0  0  0  4           0  0  0
    1.4673    0.0825   -2.5625 C   0  0  0  0  0  4           0  0  0
    1.8819    0.0407   -4.9911 C   0  0  0  0  0  4           0  0  0
    1.9237    0.7202   -1.2474 C   0  0  0  0  0  4           0  0  0
    2.7568    0.6544   -6.0790 C   0  0  0  0  0  4           0  0  0
  1 18  1  0     0  0
  2  4  2  0     0  0
  2  5  1  0     0  0
  2  6  1  0     0  0
  2  7  1  0     0  0
  3 19  1  0     0  0
  5 37  1  0     0  0
  8 20  1  0     0  0
  8 38  1  0     0  0
  9 21  1  0     0  0
  9 39  1  0     0  0
 10 36  2  0     0  0
 11 22  2  0     0  0
 11 26  1  0     0  0
 12 22  1  0     0  0
 12 27  2  0     0  0
 13 23  1  0     0  0
 13 24  2  0     0  0
 14 23  2  0     0  0
 14 25  1  0     0  0
 15 24  1  0     0  0
 15 28  1  0     0  0
 16 22  1  0     0  0
 16 36  1  0     0  0
 17 40  1  0     0  0
 17 41  1  0     0  0
 17 42  1  0     0  0
 18 19  1  0     0  0
 18 31  2  0     0  0
 19 32  2  0     0  0
 20 21  1  0     0  0
 20 33  2  0     0  0
 21 34  2  0     0  0
 24 29  1  0     0  0
 25 29  2  0     0  0
 25 33  1  0     0  0
 26 28  2  0     0  0
 27 28  1  0     0  0
 29 34  1  0     0  0
 30 31  1  0     0  0
 30 35  2  0     0  0
 30 36  1  0     0  0
 32 35  1  0     0  0
 37 40  1  0     0  0
 38 43  1  0     0  0
 41 43  1  0     0  0
 42 44  1  0     0  0
M  END
> <standard_type>
pIC50

> <# Confs.>
25

> <canonical_smiles>
FC1=CC=C(C(NC2=NC=C(NC3=NC=NC4=C3C=C(OC)C(OCCCN(CC)CCOP(O)(O)=O)=C4)C=N2)=O)C=C1Cl

> <standard_relation>
=

> <Publication_ID>
nan

> <predicted_activity_value>
7.721246399047171

> <actual_activity_value>
7.920818753952375

> <Compound>
24

> <standard_units>
nM

> hash
9306251387136053245

$$$$
24_
XXILIB    08252103423D 0   0.00000     0.00000

 44 47  0     1  0            999 V2000
   -8.4411   -7.6193   13.1130 Cl  0  0  0  0  0  1           0  0  0
   -1.8598   -4.1590   -4.0594 P   0  0  1  0  0  5           0  0  0
   -6.7981   -6.4587   15.2801 F   0  0  0  0  0  1           0  0  0
   -2.6977   -3.7487   -2.8842 O   0  0  0  0  0  2           0  0  0
   -0.3021   -3.7282   -3.9858 O   0  0  0  0  0  2           0  0  0
   -1.7928   -5.7513   -4.3319 O   0  0  0  0  0  2           0  0  0
   -2.3530   -3.5663   -5.4812 O   0  0  0  0  0  2           0  0  0
    0.0000    0.0000    0.0000 O   0  0  0  0  0  2           0  0  0
   -2.2929   -1.1715    0.4037 O   0  0  0  0  0  2           0  0  0
   -6.9876   -3.9344    9.5266 O   0  0  0  0  0  2           0  0  0
   -3.2014   -2.1608    8.9716 N   0  0  0  0  0  3           0  0  0
   -5.3259   -2.5682    7.9580 N   0  0  0  0  0  3           0  0  0
   -1.2849    0.4836    6.2350 N   0  0  0  0  0  3           0  0  0
    0.4037    1.1115    4.6548 N   0  0  0  0  0  3           0  0  0
   -3.2392   -0.6944    5.5592 N   0  0  0  0  0  3           0  0  0
   -4.8411   -3.3452   10.1596 N   0  0  0  0  0  3           0  0  0
    1.9575   -0.7940   -3.7409 N   0  0  1  0  0  3           0  0  0
   -7.3502   -6.2945   12.9777 C   0  0  0  0  0  4           0  0  0
   -6.6383   -5.8537   14.0932 C   0  0  0  0  0  4           0  0  0
   -0.4633    0.0000    1.2916 C   0  0  0  0  0  4           0  0  0
   -1.6947   -0.6276    1.5052 C   0  0  0  0  0  4           0  0  0
   -4.4522   -2.6680    8.9839 C   0  0  0  0  0  4           0  0  0
   -0.1212    1.0483    5.8868 C   0  0  0  0  0  4           0  0  0
   -2.0174   -0.0663    5.2359 C   0  0  0  0  0  4           0  0  0
   -0.3051    0.5462    3.6690 C   0  0  0  0  0  4           0  0  0
   -2.8238   -1.5182    7.8431 C   0  0  0  0  0  4           0  0  0
   -4.8867   -1.9143    6.8596 C   0  0  0  0  0  4           0  0  0
   -3.6273   -1.3563    6.7289 C   0  0  0  0  0  4           0  0  0
   -1.5465   -0.0766    3.8980 C   0  0  0  0  0  4           0  0  0
   -6.2845   -4.5927   11.6591 C   0  0  0  0  0  4           0  0  0
   -7.1763   -5.6644   11.7468 C   0  0  0  0  0  4           0  0  0
   -5.7481   -4.7850   13.9971 C   0  0  0  0  0  4           0  0  0
    0.2115    0.5750    2.3758 C   0  0  0  0  0  4           0  0  0
   -2.2258   -0.6645    2.7996 C   0  0  0  0  0  4           0  0  0
   -5.5658   -4.1481   12.7713 C   0  0  0  0  0  4           0  0  0
   -6.0753   -3.9292   10.3503 C   0  0  0  0  0  4           0  0  0
    0.0166   -2.3487   -3.8935 C   0  0  0  0  0  4           0  0  0
    1.4280    0.0000    0.0000 C   0  0  0  0  0  4           0  0  0
   -3.5470   -1.8064    0.6425 C   0  0  0  0  0  4           0  0  0
    1.5308   -2.1924   -3.8377 C   0  0  0  0  0  4           0  0  0
    1.4673   -0.0825   -2.5625 C   0  0  0  0  0  4           0  0  0
    3.3632   -0.5569   -4.0632 C   0  0  0  0  0  4           0  0  0
    1.9237   -0.7202   -1.2474 C   0  0  0  0  0  4           0  0  0
    3.6999   -0.9830   -5.4882 C   0  0  0  0  0  4           0  0  0
  1 18  1  0     0  0
  2  4  2  0     0  0
  2  5  1  0     0  0
  2  6  1  0     0  0
  2  7  1  0     0  0
  3 19  1  0     0  0
  5 37  1  0     0  0
  8 20  1  0     0  0
  8 38  1  0     0  0
  9 21  1  0     0  0
  9 39  1  0     0  0
 10 36  2  0     0  0
 11 22  2  0     0  0
 11 26  1  0     0  0
 12 22  1  0     0  0
 12 27  2  0     0  0
 13 23  1  0     0  0
 13 24  2  0     0  0
 14 23  2  0     0  0
 14 25  1  0     0  0
 15 24  1  0     0  0
 15 28  1  0     0  0
 16 22  1  0     0  0
 16 36  1  0     0  0
 17 40  1  0     0  0
 17 41  1  0     0  0
 17 42  1  0     0  0
 18 19  1  0     0  0
 18 31  2  0     0  0
 19 32  2  0     0  0
 20 21  1  0     0  0
 20 33  2  0     0  0
 21 34  2  0     0  0
 24 29  1  0     0  0
 25 29  2  0     0  0
 25 33  1  0     0  0
 26 28  2  0     0  0
 27 28  1  0     0  0
 29 34  1  0     0  0
 30 31  1  0     0  0
 30 35  2  0     0  0
 30 36  1  0     0  0
 32 35  1  0     0  0
 37 40  1  0     0  0
 38 43  1  0     0  0
 41 43  1  0     0  0
 42 44  1  0     0  0
M  END
> <standard_type>
pIC50

> <# Confs.>
25

> <canonical_smiles>
FC1=CC=C(C(NC2=NC=C(NC3=NC=NC4=C3C=C(OC)C(OCCCN(CC)CCOP(O)(O)=O)=C4)C=N2)=O)C=C1Cl

> <standard_relation>
=

> <Publication_ID>
nan

> <predicted_activity_value>
7.721246399047171

> <actual_activity_value>
7.920818753952375

> <Compound>
24

> <standard_units>
nM

> hash
9306251387136053245

$$$$
24_
XXILIB    08252103423D 0   0.00000     0.00000

 44 47  0     1  0            999 V2000
   -8.4411   -7.6193   13.1130 Cl  0  0  0  0  0  1           0  0  0
    6.4437   -4.2833   -2.2078 P   0  0  1  0  0  5           0  0  0
   -6.7981   -6.4587   15.2801 F   0  0  0  0  0  1           0  0  0
    6.1853   -5.7071   -2.6047 O   0  0  0  0  0  2           0  0  0
    5.4735   -3.6972   -1.0533 O   0  0  0  0  0  2           0  0  0
    7.9258   -3.9893   -1.6325 O   0  0  0  0  0  2           0  0  0
    6.2993   -3.2097   -3.4089 O   0  0  0  0  0  2           0  0  0
    0.0000    0.0000    0.0000 O   0  0  0  0  0  2           0  0  0
   -2.2929   -1.1715    0.4037 O   0  0  0  0  0  2           0  0  0
   -6.9876   -3.9344    9.5266 O   0  0  0  0  0  2           0  0  0
   -3.2014   -2.1608    8.9716 N   0  0  0  0  0  3           0  0  0
   -5.3259   -2.5682    7.9580 N   0  0  0  0  0  3           0  0  0
   -1.2849    0.4836    6.2350 N   0  0  0  0  0  3           0  0  0
    0.4037    1.1115    4.6548 N   0  0  0  0  0  3           0  0  0
   -3.2392   -0.6944    5.5592 N   0  0  0  0  0  3           0  0  0
   -4.8411   -3.3452   10.1596 N   0  0  0  0  0  3           0  0  0
    1.9218   -2.9995   -0.2329 N   0  0  1  0  0  3           0  0  0
   -7.3502   -6.2945   12.9777 C   0  0  0  0  0  4           0  0  0
   -6.6383   -5.8537   14.0932 C   0  0  0  0  0  4           0  0  0
   -0.4633    0.0000    1.2916 C   0  0  0  0  0  4           0  0  0
   -1.6947   -0.6276    1.5052 C   0  0  0  0  0  4           0  0  0
   -4.4522   -2.6680    8.9839 C   0  0  0  0  0  4           0  0  0
   -0.1212    1.0483    5.8868 C   0  0  0  0  0  4           0  0  0
   -2.0174   -0.0663    5.2359 C   0  0  0  0  0  4           0  0  0
   -0.3051    0.5462    3.6690 C   0  0  0  0  0  4           0  0  0
   -2.8238   -1.5182    7.8431 C   0  0  0  0  0  4           0  0  0
   -4.8867   -1.9143    6.8596 C   0  0  0  0  0  4           0  0  0
   -3.6273   -1.3563    6.7289 C   0  0  0  0  0  4           0  0  0
   -1.5465   -0.0766    3.8980 C   0  0  0  0  0  4           0  0  0
   -6.2845   -4.5927   11.6591 C   0  0  0  0  0  4           0  0  0
   -7.1763   -5.6644   11.7468 C   0  0  0  0  0  4           0  0  0
   -5.7481   -4.7850   13.9971 C   0  0  0  0  0  4           0  0  0
    0.2115    0.5750    2.3758 C   0  0  0  0  0  4           0  0  0
   -2.2258   -0.6645    2.7996 C   0  0  0  0  0  4           0  0  0
   -5.5658   -4.1481   12.7713 C   0  0  0  0  0  4           0  0  0
   -6.0753   -3.9292   10.3503 C   0  0  0  0  0  4           0  0  0
    4.0758   -3.6625   -1.2948 C   0  0  0  0  0  4           0  0  0
    1.4280    0.0000   -0.0000 C   0  0  0  0  0  4           0  0  0
   -3.5470   -1.8064    0.6425 C   0  0  0  0  0  4           0  0  0
    3.3764   -3.0755   -0.0755 C   0  0  0  0  0  4           0  0  0
    1.4673   -2.1779   -1.3527 C   0  0  0  0  0  4           0  0  0
    1.2196   -4.2718   -0.0776 C   0  0  0  0  0  4           0  0  0
    1.9237   -0.7202   -1.2474 C   0  0  0  0  0  4           0  0  0
    1.4441   -4.8808    1.3024 C   0  0  0  0  0  4           0  0  0
  1 18  1  0     0  0
  2  4  2  0     0  0
  2  5  1  0     0  0
  2  6  1  0     0  0
  2  7  1  0     0  0
  3 19  1  0     0  0
  5 37  1  0     0  0
  8 20  1  0     0  0
  8 38  1  0     0  0
  9 21  1  0     0  0
  9 39  1  0     0  0
 10 36  2  0     0  0
 11 22  2  0     0  0
 11 26  1  0     0  0
 12 22  1  0     0  0
 12 27  2  0     0  0
 13 23  1  0     0  0
 13 24  2  0     0  0
 14 23  2  0     0  0
 14 25  1  0     0  0
 15 24  1  0     0  0
 15 28  1  0     0  0
 16 22  1  0     0  0
 16 36  1  0     0  0
 17 40  1  0     0  0
 17 41  1  0     0  0
 17 42  1  0     0  0
 18 19  1  0     0  0
 18 31  2  0     0  0
 19 32  2  0     0  0
 20 21  1  0     0  0
 20 33  2  0     0  0
 21 34  2  0     0  0
 24 29  1  0     0  0
 25 29  2  0     0  0
 25 33  1  0     0  0
 26 28  2  0     0  0
 27 28  1  0     0  0
 29 34  1  0     0  0
 30 31  1  0     0  0
 30 35  2  0     0  0
 30 36  1  0     0  0
 32 35  1  0     0  0
 37 40  1  0     0  0
 38 43  1  0     0  0
 41 43  1  0     0  0
 42 44  1  0     0  0
M  END
> <standard_type>
pIC50

> <# Confs.>
25

> <canonical_smiles>
FC1=CC=C(C(NC2=NC=C(NC3=NC=NC4=C3C=C(OC)C(OCCCN(CC)CCOP(O)(O)=O)=C4)C=N2)=O)C=C1Cl

> <standard_relation>
=

> <Publication_ID>
nan

> <predicted_activity_value>
7.721246399047171

> <actual_activity_value>
7.920818753952375

> <Compound>
24

> <standard_units>
nM

> hash
9306251387136053245

$$$$
24_
XXILIB    08252103423D 0   0.00000     0.00000

 44 47  0     1  0            999 V2000
  -12.9963   -0.7626   11.4792 Cl  0  0  0  0  0  1           0  0  0
   -1.8598    4.1590   -4.0594 P   0  0  1  0  0  5           0  0  0
  -11.4794   -2.1552   13.6011 F   0  0  0  0  0  1           0  0  0
   -2.6259    3.6085   -5.2263 O   0  0  0  0  0  2           0  0  0
   -0.3021    3.7282   -3.9858 O   0  0  0  0  0  2           0  0  0
   -1.8037    5.7726   -3.9750 O   0  0  0  0  0  2           0  0  0
   -2.4410    3.7381   -2.6098 O   0  0  0  0  0  2           0  0  0
    0.0000    0.0000    0.0000 O   0  0  0  0  0  2           0  0  0
   -2.2963    1.1653    0.4024 O   0  0  0  0  0  2           0  0  0
   -8.6129    0.9436    8.9436 O   0  0  0  0  0  2           0  0  0
   -4.9701   -1.0938    8.3372 N   0  0  0  0  0  3           0  0  0
   -6.3245    0.7307    7.5998 N   0  0  0  0  0  3           0  0  0
   -1.3121   -0.5338    6.2252 N   0  0  0  0  0  3           0  0  0
    0.3913   -1.1343    4.6504 N   0  0  0  0  0  3           0  0  0
   -3.2536    0.6680    5.5540 N   0  0  0  0  0  3           0  0  0
   -7.0377   -0.6967    9.3717 N   0  0  0  0  0  3           0  0  0
    1.9575    0.7940   -3.7409 N   0  0  1  0  0  3           0  0  0
  -11.2873   -0.9499   11.5656 C   0  0  0  0  0  4           0  0  0
  -10.7086   -1.6361   12.6333 C   0  0  0  0  0  4           0  0  0
   -0.4633    0.0000    1.2916 C   0  0  0  0  0  4           0  0  0
   -1.6947    0.6276    1.5052 C   0  0  0  0  0  4           0  0  0
   -6.0823   -0.3314    8.3993 C   0  0  0  0  0  4           0  0  0
   -0.1483   -1.0982    5.8771 C   0  0  0  0  0  4           0  0  0
   -2.0097    0.0805    5.2386 C   0  0  0  0  0  4           0  0  0
   -0.3077   -0.5509    3.6681 C   0  0  0  0  0  4           0  0  0
   -4.0566   -0.7503    7.4009 C   0  0  0  0  0  4           0  0  0
   -5.3722    1.0208    6.6854 C   0  0  0  0  0  4           0  0  0
   -4.1952    0.3114    6.5252 C   0  0  0  0  0  4           0  0  0
   -1.5432    0.0827    3.8992 C   0  0  0  0  0  4           0  0  0
   -9.0968   -0.5822   10.6504 C   0  0  0  0  0  4           0  0  0
  -10.4811   -0.4167   10.5615 C   0  0  0  0  0  4           0  0  0
   -9.3263   -1.7992   12.7137 C   0  0  0  0  0  4           0  0  0
    0.2090   -0.5796    2.3749 C   0  0  0  0  0  4           0  0  0
   -2.2263    0.6637    2.7994 C   0  0  0  0  0  4           0  0  0
   -8.5108   -1.2710   11.7150 C   0  0  0  0  0  4           0  0  0
   -8.2315   -0.0383    9.5770 C   0  0  0  0  0  4           0  0  0
    0.0166    2.3487   -3.8935 C   0  0  0  0  0  4           0  0  0
    1.4280    0.0000    0.0000 C   0  0  0  0  0  4           0  0  0
   -3.5503    1.8003    0.6414 C   0  0  0  0  0  4           0  0  0
    1.5308    2.1924   -3.8377 C   0  0  0  0  0  4           0  0  0
    1.4673    0.0825   -2.5625 C   0  0  0  0  0  4           0  0  0
    1.8819    0.0407   -4.9911 C   0  0  0  0  0  4           0  0  0
    1.9237    0.7202   -1.2474 C   0  0  0  0  0  4           0  0  0
    2.7568    0.6544   -6.0790 C   0  0  0  0  0  4           0  0  0
  1 18  1  0     0  0
  2  4  2  0     0  0
  2  5  1  0     0  0
  2  6  1  0     0  0
  2  7  1  0     0  0
  3 19  1  0     0  0
  5 37  1  0     0  0
  8 20  1  0     0  0
  8 38  1  0     0  0
  9 21  1  0     0  0
  9 39  1  0     0  0
 10 36  2  0     0  0
 11 22  2  0     0  0
 11 26  1  0     0  0
 12 22  1  0     0  0
 12 27  2  0     0  0
 13 23  1  0     0  0
 13 24  2  0     0  0
 14 23  2  0     0  0
 14 25  1  0     0  0
 15 24  1  0     0  0
 15 28  1  0     0  0
 16 22  1  0     0  0
 16 36  1  0     0  0
 17 40  1  0     0  0
 17 41  1  0     0  0
 17 42  1  0     0  0
 18 19  1  0     0  0
 18 31  2  0     0  0
 19 32  2  0     0  0
 20 21  1  0     0  0
 20 33  2  0     0  0
 21 34  2  0     0  0
 24 29  1  0     0  0
 25 29  2  0     0  0
 25 33  1  0     0  0
 26 28  2  0     0  0
 27 28  1  0     0  0
 29 34  1  0     0  0
 30 31  1  0     0  0
 30 35  2  0     0  0
 30 36  1  0     0  0
 32 35  1  0     0  0
 37 40  1  0     0  0
 38 43  1  0     0  0
 41 43  1  0     0  0
 42 44  1  0     0  0
M  END
> <standard_type>
pIC50

> <# Confs.>
25

> <canonical_smiles>
FC1=CC=C(C(NC2=NC=C(NC3=NC=NC4=C3C=C(OC)C(OCCCN(CC)CCOP(O)(O)=O)=C4)C=N2)=O)C=C1Cl

> <standard_relation>
=

> <Publication_ID>
nan

> <predicted_activity_value>
7.721246399047171

> <actual_activity_value>
7.920818753952375

> <Compound>
24

> <standard_units>
nM

> hash
9306251387136053245

$$$$
24_
XXILIB    08252103423D 0   0.00000     0.00000

 44 47  0     1  0            999 V2000
   -8.6337   -2.5614   14.0846 Cl  0  0  0  0  0  1           0  0  0
    6.4195    4.3892   -0.6360 P   0  0  1  0  0  5           0  0  0
  -11.5076   -2.0216   13.6461 F   0  0  0  0  0  1           0  0  0
    6.1521    5.8529   -0.4418 O   0  0  0  0  0  2           0  0  0
    5.4839    3.6516   -1.7305 O   0  0  0  0  0  2           0  0  0
    7.9180    4.0238   -1.1210 O   0  0  0  0  0  2           0  0  0
    6.2362    3.4862    0.6934 O   0  0  0  0  0  2           0  0  0
    0.0000    0.0000    0.0000 O   0  0  0  0  0  2           0  0  0
   -2.2963    1.1653    0.4024 O   0  0  0  0  0  2           0  0  0
   -8.6129    0.9436    8.9436 O   0  0  0  0  0  2           0  0  0
   -4.9701   -1.0938    8.3372 N   0  0  0  0  0  3           0  0  0
   -6.3245    0.7307    7.5998 N   0  0  0  0  0  3           0  0  0
   -1.3121   -0.5338    6.2252 N   0  0  0  0  0  3           0  0  0
    0.3913   -1.1343    4.6504 N   0  0  0  0  0  3           0  0  0
   -3.2536    0.6680    5.5540 N   0  0  0  0  0  3           0  0  0
   -7.0377   -0.6967    9.3717 N   0  0  0  0  0  3           0  0  0
    1.9575    2.8427   -2.5581 N   0  0  1  0  0  3           0  0  0
   -9.3310   -1.7382   12.7432 C   0  0  0  0  0  4           0  0  0
  -10.7121   -1.5564   12.6709 C   0  0  0  0  0  4           0  0  0
   -0.4633    0.0000    1.2916 C   0  0  0  0  0  4           0  0  0
   -1.6947    0.6276    1.5052 C   0  0  0  0  0  4           0  0  0
   -6.0823   -0.3314    8.3993 C   0  0  0  0  0  4           0  0  0
   -0.1483   -1.0982    5.8771 C   0  0  0  0  0  4           0  0  0
   -2.0097    0.0805    5.2386 C   0  0  0  0  0  4           0  0  0
   -0.3077   -0.5509    3.6681 C   0  0  0  0  0  4           0  0  0
   -4.0566   -0.7503    7.4009 C   0  0  0  0  0  4           0  0  0
   -5.3722    1.0208    6.6854 C   0  0  0  0  0  4           0  0  0
   -4.1952    0.3114    6.5252 C   0  0  0  0  0  4           0  0  0
   -1.5432    0.0827    3.8992 C   0  0  0  0  0  4           0  0  0
   -9.0968   -0.5822   10.6504 C   0  0  0  0  0  4           0  0  0
   -8.5101   -1.2489   11.7288 C   0  0  0  0  0  4           0  0  0
  -11.2899   -0.8877   11.5925 C   0  0  0  0  0  4           0  0  0
    0.2090   -0.5796    2.3749 C   0  0  0  0  0  4           0  0  0
   -2.2263    0.6637    2.7994 C   0  0  0  0  0  4           0  0  0
  -10.4787   -0.3935   10.5732 C   0  0  0  0  0  4           0  0  0
   -8.2315   -0.0383    9.5770 C   0  0  0  0  0  4           0  0  0
    4.0794    3.6467   -1.5294 C   0  0  0  0  0  4           0  0  0
    1.4280   -0.0000    0.0000 C   0  0  0  0  0  4           0  0  0
   -3.5503    1.8003    0.6414 C   0  0  0  0  0  4           0  0  0
    3.4165    2.9000   -2.6798 C   0  0  0  0  0  4           0  0  0
    1.4673    2.1779   -1.3527 C   0  0  0  0  0  4           0  0  0
    1.2631    4.0813   -2.9042 C   0  0  0  0  0  4           0  0  0
    1.9237    0.7202   -1.2474 C   0  0  0  0  0  4           0  0  0
    1.5309    4.5001   -4.3459 C   0  0  0  0  0  4           0  0  0
  1 18  1  0     0  0
  2  4  2  0     0  0
  2  5  1  0     0  0
  2  6  1  0     0  0
  2  7  1  0     0  0
  3 19  1  0     0  0
  5 37  1  0     0  0
  8 20  1  0     0  0
  8 38  1  0     0  0
  9 21  1  0     0  0
  9 39  1  0     0  0
 10 36  2  0     0  0
 11 22  2  0     0  0
 11 26  1  0     0  0
 12 22  1  0     0  0
 12 27  2  0     0  0
 13 23  1  0     0  0
 13 24  2  0     0  0
 14 23  2  0     0  0
 14 25  1  0     0  0
 15 24  1  0     0  0
 15 28  1  0     0  0
 16 22  1  0     0  0
 16 36  1  0     0  0
 17 40  1  0     0  0
 17 41  1  0     0  0
 17 42  1  0     0  0
 18 19  1  0     0  0
 18 31  2  0     0  0
 19 32  2  0     0  0
 20 21  1  0     0  0
 20 33  2  0     0  0
 21 34  2  0     0  0
 24 29  1  0     0  0
 25 29  2  0     0  0
 25 33  1  0     0  0
 26 28  2  0     0  0
 27 28  1  0     0  0
 29 34  1  0     0  0
 30 31  1  0     0  0
 30 35  2  0     0  0
 30 36  1  0     0  0
 32 35  1  0     0  0
 37 40  1  0     0  0
 38 43  1  0     0  0
 41 43  1  0     0  0
 42 44  1  0     0  0
M  END
> <standard_type>
pIC50

> <# Confs.>
25

> <canonical_smiles>
FC1=CC=C(C(NC2=NC=C(NC3=NC=NC4=C3C=C(OC)C(OCCCN(CC)CCOP(O)(O)=O)=C4)C=N2)=O)C=C1Cl

> <standard_relation>
=

> <Publication_ID>
nan

> <predicted_activity_value>
7.721246399047171

> <actual_activity_value>
7.920818753952375

> <Compound>
24

> <standard_units>
nM

> hash
9306251387136053245

$$$$
24_
XXILIB    08252103423D 0   0.00000     0.00000

 44 47  0     1  0            999 V2000
   -4.9589   -4.2007   15.4027 Cl  0  0  0  0  0  1           0  0  0
    6.4195   -4.3892   -0.6360 P   0  0  1  0  0  5           0  0  0
   -6.9300   -6.4017   15.2879 F   0  0  0  0  0  1           0  0  0
    7.8928   -4.3518   -0.9182 O   0  0  0  0  0  2           0  0  0
    5.4839   -3.6516   -1.7305 O   0  0  0  0  0  2           0  0  0
    5.7775   -5.8697   -0.5353 O   0  0  0  0  0  2           0  0  0
    5.9815   -3.7059    0.7631 O   0  0  0  0  0  2           0  0  0
    0.0000    0.0000    0.0000 O   0  0  0  0  0  2           0  0  0
   -2.2929   -1.1715    0.4037 O   0  0  0  0  0  2           0  0  0
   -6.9876   -3.9344    9.5266 O   0  0  0  0  0  2           0  0  0
   -3.2014   -2.1608    8.9716 N   0  0  0  0  0  3           0  0  0
   -5.3259   -2.5682    7.9580 N   0  0  0  0  0  3           0  0  0
   -1.2849    0.4836    6.2350 N   0  0  0  0  0  3           0  0  0
    0.4037    1.1115    4.6548 N   0  0  0  0  0  3           0  0  0
   -3.2392   -0.6944    5.5592 N   0  0  0  0  0  3           0  0  0
   -4.8411   -3.3452   10.1596 N   0  0  0  0  0  3           0  0  0
    1.9575   -2.8427   -2.5581 N   0  0  1  0  0  3           0  0  0
   -5.8051   -4.7498   14.0078 C   0  0  0  0  0  4           0  0  0
   -6.7111   -5.8058   14.1059 C   0  0  0  0  0  4           0  0  0
   -0.4633    0.0000    1.2916 C   0  0  0  0  0  4           0  0  0
   -1.6947   -0.6276    1.5052 C   0  0  0  0  0  4           0  0  0
   -4.4522   -2.6680    8.9839 C   0  0  0  0  0  4           0  0  0
   -0.1212    1.0483    5.8868 C   0  0  0  0  0  4           0  0  0
   -2.0174   -0.0663    5.2359 C   0  0  0  0  0  4           0  0  0
   -0.3051    0.5462    3.6690 C   0  0  0  0  0  4           0  0  0
   -2.8238   -1.5182    7.8431 C   0  0  0  0  0  4           0  0  0
   -4.8867   -1.9143    6.8596 C   0  0  0  0  0  4           0  0  0
   -3.6273   -1.3563    6.7289 C   0  0  0  0  0  4           0  0  0
   -1.5465   -0.0766    3.8980 C   0  0  0  0  0  4           0  0  0
   -6.2845   -4.5927   11.6591 C   0  0  0  0  0  4           0  0  0
   -5.5856   -4.1324   12.7777 C   0  0  0  0  0  4           0  0  0
   -7.4067   -6.2577   12.9853 C   0  0  0  0  0  4           0  0  0
    0.2115    0.5750    2.3758 C   0  0  0  0  0  4           0  0  0
   -2.2258   -0.6645    2.7996 C   0  0  0  0  0  4           0  0  0
   -7.1957   -5.6474   11.7507 C   0  0  0  0  0  4           0  0  0
   -6.0753   -3.9292   10.3503 C   0  0  0  0  0  4           0  0  0
    4.0794   -3.6467   -1.5294 C   0  0  0  0  0  4           0  0  0
    1.4280    0.0000    0.0000 C   0  0  0  0  0  4           0  0  0
   -3.5470   -1.8064    0.6425 C   0  0  0  0  0  4           0  0  0
    3.4165   -2.9000   -2.6798 C   0  0  0  0  0  4           0  0  0
    1.4673   -2.1779   -1.3527 C   0  0  0  0  0  4           0  0  0
    1.2520   -2.4873   -3.7878 C   0  0  0  0  0  4           0  0  0
    1.9237   -0.7202   -1.2474 C   0  0  0  0  0  4           0  0  0
    1.5238   -3.4852   -4.9084 C   0  0  0  0  0  4           0  0  0
  1 18  1  0     0  0
  2  4  2  0     0  0
  2  5  1  0     0  0
  2  6  1  0     0  0
  2  7  1  0     0  0
  3 19  1  0     0  0
  5 37  1  0     0  0
  8 20  1  0     0  0
  8 38  1  0     0  0
  9 21  1  0     0  0
  9 39  1  0     0  0
 10 36  2  0     0  0
 11 22  2  0     0  0
 11 26  1  0     0  0
 12 22  1  0     0  0
 12 27  2  0     0  0
 13 23  1  0     0  0
 13 24  2  0     0  0
 14 23  2  0     0  0
 14 25  1  0     0  0
 15 24  1  0     0  0
 15 28  1  0     0  0
 16 22  1  0     0  0
 16 36  1  0     0  0
 17 40  1  0     0  0
 17 41  1  0     0  0
 17 42  1  0     0  0
 18 19  1  0     0  0
 18 31  2  0     0  0
 19 32  2  0     0  0
 20 21  1  0     0  0
 20 33  2  0     0  0
 21 34  2  0     0  0
 24 29  1  0     0  0
 25 29  2  0     0  0
 25 33  1  0     0  0
 26 28  2  0     0  0
 27 28  1  0     0  0
 29 34  1  0     0  0
 30 31  1  0     0  0
 30 35  2  0     0  0
 30 36  1  0     0  0
 32 35  1  0     0  0
 37 40  1  0     0  0
 38 43  1  0     0  0
 41 43  1  0     0  0
 42 44  1  0     0  0
M  END
> <standard_type>
pIC50

> <# Confs.>
25

> <canonical_smiles>
FC1=CC=C(C(NC2=NC=C(NC3=NC=NC4=C3C=C(OC)C(OCCCN(CC)CCOP(O)(O)=O)=C4)C=N2)=O)C=C1Cl

> <standard_relation>
=

> <Publication_ID>
nan

> <predicted_activity_value>
7.721246399047171

> <actual_activity_value>
7.920818753952375

> <Compound>
24

> <standard_units>
nM

> hash
9306251387136053245

$$$$
24_
XXILIB    08252103423D 0   0.00000     0.00000

 44 47  0     1  0            999 V2000
   -4.9589   -4.2007   15.4027 Cl  0  0  0  0  0  1           0  0  0
   -1.8598    1.5721   -5.5950 P   0  0  1  0  0  5           0  0  0
   -6.9300   -6.4017   15.2879 F   0  0  0  0  0  1           0  0  0
   -2.1161    2.8017   -6.4160 O   0  0  0  0  0  2           0  0  0
   -0.3021    1.2358   -5.3159 O   0  0  0  0  0  2           0  0  0
   -2.5079    1.5884   -4.1138 O   0  0  0  0  0  2           0  0  0
   -2.4381    0.2019   -6.2309 O   0  0  0  0  0  2           0  0  0
    0.0000    0.0000    0.0000 O   0  0  0  0  0  2           0  0  0
   -2.2929   -1.1715    0.4037 O   0  0  0  0  0  2           0  0  0
   -6.9876   -3.9344    9.5266 O   0  0  0  0  0  2           0  0  0
   -3.2014   -2.1608    8.9716 N   0  0  0  0  0  3           0  0  0
   -5.3259   -2.5682    7.9580 N   0  0  0  0  0  3           0  0  0
   -1.2849    0.4836    6.2350 N   0  0  0  0  0  3           0  0  0
    0.4037    1.1115    4.6548 N   0  0  0  0  0  3           0  0  0
   -3.2392   -0.6944    5.5592 N   0  0  0  0  0  3           0  0  0
   -4.8411   -3.3452   10.1596 N   0  0  0  0  0  3           0  0  0
    1.9575   -1.1828   -3.6368 N   0  0  1  0  0  3           0  0  0
   -5.8051   -4.7498   14.0078 C   0  0  0  0  0  4           0  0  0
   -6.7111   -5.8058   14.1059 C   0  0  0  0  0  4           0  0  0
   -0.4633    0.0000    1.2916 C   0  0  0  0  0  4           0  0  0
   -1.6947   -0.6276    1.5052 C   0  0  0  0  0  4           0  0  0
   -4.4522   -2.6680    8.9839 C   0  0  0  0  0  4           0  0  0
   -0.1212    1.0483    5.8868 C   0  0  0  0  0  4           0  0  0
   -2.0174   -0.0663    5.2359 C   0  0  0  0  0  4           0  0  0
   -0.3051    0.5462    3.6690 C   0  0  0  0  0  4           0  0  0
   -2.8238   -1.5182    7.8431 C   0  0  0  0  0  4           0  0  0
   -4.8867   -1.9143    6.8596 C   0  0  0  0  0  4           0  0  0
   -3.6273   -1.3563    6.7289 C   0  0  0  0  0  4           0  0  0
   -1.5465   -0.0766    3.8980 C   0  0  0  0  0  4           0  0  0
   -6.2845   -4.5927   11.6591 C   0  0  0  0  0  4           0  0  0
   -5.5856   -4.1324   12.7777 C   0  0  0  0  0  4           0  0  0
   -7.4067   -6.2577   12.9853 C   0  0  0  0  0  4           0  0  0
    0.2115    0.5750    2.3758 C   0  0  0  0  0  4           0  0  0
   -2.2258   -0.6645    2.7996 C   0  0  0  0  0  4           0  0  0
   -7.1957   -5.6474   11.7507 C   0  0  0  0  0  4           0  0  0
   -6.0753   -3.9292   10.3503 C   0  0  0  0  0  4           0  0  0
    0.0166    0.0873   -4.5462 C   0  0  0  0  0  4           0  0  0
    1.4280    0.0000    0.0000 C   0  0  0  0  0  4           0  0  0
   -3.5470   -1.8064    0.6425 C   0  0  0  0  0  4           0  0  0
    1.5308   -0.0202   -4.4197 C   0  0  0  0  0  4           0  0  0
    1.4673   -1.2098   -2.2604 C   0  0  0  0  0  4           0  0  0
    1.8819   -2.4603   -4.3428 C   0  0  0  0  0  4           0  0  0
    1.9237    0.0000   -1.4404 C   0  0  0  0  0  4           0  0  0
    2.7568   -2.4728   -5.5917 C   0  0  0  0  0  4           0  0  0
  1 18  1  0     0  0
  2  4  2  0     0  0
  2  5  1  0     0  0
  2  6  1  0     0  0
  2  7  1  0     0  0
  3 19  1  0     0  0
  5 37  1  0     0  0
  8 20  1  0     0  0
  8 38  1  0     0  0
  9 21  1  0     0  0
  9 39  1  0     0  0
 10 36  2  0     0  0
 11 22  2  0     0  0
 11 26  1  0     0  0
 12 22  1  0     0  0
 12 27  2  0     0  0
 13 23  1  0     0  0
 13 24  2  0     0  0
 14 23  2  0     0  0
 14 25  1  0     0  0
 15 24  1  0     0  0
 15 28  1  0     0  0
 16 22  1  0     0  0
 16 36  1  0     0  0
 17 40  1  0     0  0
 17 41  1  0     0  0
 17 42  1  0     0  0
 18 19  1  0     0  0
 18 31  2  0     0  0
 19 32  2  0     0  0
 20 21  1  0     0  0
 20 33  2  0     0  0
 21 34  2  0     0  0
 24 29  1  0     0  0
 25 29  2  0     0  0
 25 33  1  0     0  0
 26 28  2  0     0  0
 27 28  1  0     0  0
 29 34  1  0     0  0
 30 31  1  0     0  0
 30 35  2  0     0  0
 30 36  1  0     0  0
 32 35  1  0     0  0
 37 40  1  0     0  0
 38 43  1  0     0  0
 41 43  1  0     0  0
 42 44  1  0     0  0
M  END
> <standard_type>
pIC50

> <# Confs.>
25

> <canonical_smiles>
FC1=CC=C(C(NC2=NC=C(NC3=NC=NC4=C3C=C(OC)C(OCCCN(CC)CCOP(O)(O)=O)=C4)C=N2)=O)C=C1Cl

> <standard_relation>
=

> <Publication_ID>
nan

> <predicted_activity_value>
7.721246399047171

> <actual_activity_value>
7.920818753952375

> <Compound>
24

> <standard_units>
nM

> hash
9306251387136053245

$$$$
24_
XXILIB    08252103423D 0   0.00000     0.00000

 44 47  0     1  0            999 V2000
   -7.0030   -3.9041   14.6695 Cl  0  0  0  0  0  1           0  0  0
   -1.8598    1.5721   -5.5950 P   0  0  1  0  0  5           0  0  0
   -9.7712   -4.8632   14.2689 F   0  0  0  0  0  1           0  0  0
   -2.1161    2.8017   -6.4160 O   0  0  0  0  0  2           0  0  0
   -0.3021    1.2358   -5.3159 O   0  0  0  0  0  2           0  0  0
   -2.5079    1.5884   -4.1138 O   0  0  0  0  0  2           0  0  0
   -2.4381    0.2019   -6.2309 O   0  0  0  0  0  2           0  0  0
    0.0000    0.0000    0.0000 O   0  0  0  0  0  2           0  0  0
   -2.5893   -0.0036    0.2974 O   0  0  0  0  0  2           0  0  0
   -8.4154   -1.7267    9.0144 O   0  0  0  0  0  2           0  0  0
   -4.2204   -1.8790    8.6061 N   0  0  0  0  0  3           0  0  0
   -6.2412   -1.0609    7.6297 N   0  0  0  0  0  3           0  0  0
   -1.1702   -0.0290    6.2761 N   0  0  0  0  0  3           0  0  0
    0.6807   -0.0132    4.7542 N   0  0  0  0  0  3           0  0  0
   -3.4182   -0.0153    5.4949 N   0  0  0  0  0  3           0  0  0
   -6.2734   -2.3336    9.6459 N   0  0  0  0  0  3           0  0  0
    1.9575   -1.1828   -3.6368 N   0  0  1  0  0  3           0  0  0
   -7.9479   -3.7459   13.2393 C   0  0  0  0  0  4           0  0  0
   -9.2475   -4.2506   13.1962 C   0  0  0  0  0  4           0  0  0
   -0.4633   -0.0000    1.2916 C   0  0  0  0  0  4           0  0  0
   -1.8530   -0.0000    1.4484 C   0  0  0  0  0  4           0  0  0
   -5.5619   -1.7317    8.5859 C   0  0  0  0  0  4           0  0  0
    0.1359   -0.0288    5.9790 C   0  0  0  0  0  4           0  0  0
   -2.0320    0.0082    5.2306 C   0  0  0  0  0  4           0  0  0
   -0.1680   -0.0027    3.7182 C   0  0  0  0  0  4           0  0  0
   -3.5371   -1.3097    7.5872 C   0  0  0  0  0  4           0  0  0
   -5.4996   -0.5159    6.6397 C   0  0  0  0  0  4           0  0  0
   -4.1216   -0.6033    6.5516 C   0  0  0  0  0  4           0  0  0
   -1.5649    0.0035    3.8914 C   0  0  0  0  0  4           0  0  0
   -8.1964   -2.9877   10.9734 C   0  0  0  0  0  4           0  0  0
   -7.4115   -3.1069   12.1228 C   0  0  0  0  0  4           0  0  0
  -10.0256   -4.1254   12.0460 C   0  0  0  0  0  4           0  0  0
    0.3559   -0.0026    2.4276 C   0  0  0  0  0  4           0  0  0
   -2.3935   -0.0005    2.7395 C   0  0  0  0  0  4           0  0  0
   -9.4998   -3.4877   10.9243 C   0  0  0  0  0  4           0  0  0
   -7.6441   -2.2907    9.7876 C   0  0  0  0  0  4           0  0  0
    0.0166    0.0873   -4.5462 C   0  0  0  0  0  4           0  0  0
    1.4280    0.0000    0.0000 C   0  0  0  0  0  4           0  0  0
   -4.0035   -0.0035    0.4788 C   0  0  0  0  0  4           0  0  0
    1.5308   -0.0202   -4.4197 C   0  0  0  0  0  4           0  0  0
    1.4673   -1.2098   -2.2604 C   0  0  0  0  0  4           0  0  0
    1.8819   -2.4603   -4.3428 C   0  0  0  0  0  4           0  0  0
    1.9237    0.0000   -1.4404 C   0  0  0  0  0  4           0  0  0
    2.7568   -2.4728   -5.5917 C   0  0  0  0  0  4           0  0  0
  1 18  1  0     0  0
  2  4  2  0     0  0
  2  5  1  0     0  0
  2  6  1  0     0  0
  2  7  1  0     0  0
  3 19  1  0     0  0
  5 37  1  0     0  0
  8 20  1  0     0  0
  8 38  1  0     0  0
  9 21  1  0     0  0
  9 39  1  0     0  0
 10 36  2  0     0  0
 11 22  2  0     0  0
 11 26  1  0     0  0
 12 22  1  0     0  0
 12 27  2  0     0  0
 13 23  1  0     0  0
 13 24  2  0     0  0
 14 23  2  0     0  0
 14 25  1  0     0  0
 15 24  1  0     0  0
 15 28  1  0     0  0
 16 22  1  0     0  0
 16 36  1  0     0  0
 17 40  1  0     0  0
 17 41  1  0     0  0
 17 42  1  0     0  0
 18 19  1  0     0  0
 18 31  2  0     0  0
 19 32  2  0     0  0
 20 21  1  0     0  0
 20 33  2  0     0  0
 21 34  2  0     0  0
 24 29  1  0     0  0
 25 29  2  0     0  0
 25 33  1  0     0  0
 26 28  2  0     0  0
 27 28  1  0     0  0
 29 34  1  0     0  0
 30 31  1  0     0  0
 30 35  2  0     0  0
 30 36  1  0     0  0
 32 35  1  0     0  0
 37 40  1  0     0  0
 38 43  1  0     0  0
 41 43  1  0     0  0
 42 44  1  0     0  0
M  END
> <standard_type>
pIC50

> <# Confs.>
25

> <canonical_smiles>
FC1=CC=C(C(NC2=NC=C(NC3=NC=NC4=C3C=C(OC)C(OCCCN(CC)CCOP(O)(O)=O)=C4)C=N2)=O)C=C1Cl

> <standard_relation>
=

> <Publication_ID>
nan

> <predicted_activity_value>
7.721246399047171

> <actual_activity_value>
7.920818753952375

> <Compound>
24

> <standard_units>
nM

> hash
9306251387136053245

$$$$
24_
XXILIB    08252103423D 0   0.00000     0.00000

 44 47  0     1  0            999 V2000
  -12.9963   -0.7626   11.4792 Cl  0  0  0  0  0  1           0  0  0
    6.4195    4.3892   -0.6360 P   0  0  1  0  0  5           0  0  0
  -11.4794   -2.1552   13.6011 F   0  0  0  0  0  1           0  0  0
    6.1521    5.8529   -0.4418 O   0  0  0  0  0  2           0  0  0
    5.4839    3.6516   -1.7305 O   0  0  0  0  0  2           0  0  0
    7.9180    4.0238   -1.1210 O   0  0  0  0  0  2           0  0  0
    6.2362    3.4862    0.6934 O   0  0  0  0  0  2           0  0  0
    0.0000    0.0000    0.0000 O   0  0  0  0  0  2           0  0  0
   -2.2963    1.1653    0.4024 O   0  0  0  0  0  2           0  0  0
   -8.6129    0.9436    8.9436 O   0  0  0  0  0  2           0  0  0
   -4.9701   -1.0938    8.3372 N   0  0  0  0  0  3           0  0  0
   -6.3245    0.7307    7.5998 N   0  0  0  0  0  3           0  0  0
   -1.3121   -0.5338    6.2252 N   0  0  0  0  0  3           0  0  0
    0.3913   -1.1343    4.6504 N   0  0  0  0  0  3           0  0  0
   -3.2536    0.6680    5.5540 N   0  0  0  0  0  3           0  0  0
   -7.0377   -0.6967    9.3717 N   0  0  0  0  0  3           0  0  0
    1.9575    2.8427   -2.5581 N   0  0  1  0  0  3           0  0  0
  -11.2873   -0.9499   11.5656 C   0  0  0  0  0  4           0  0  0
  -10.7086   -1.6361   12.6333 C   0  0  0  0  0  4           0  0  0
   -0.4633    0.0000    1.2916 C   0  0  0  0  0  4           0  0  0
   -1.6947    0.6276    1.5052 C   0  0  0  0  0  4           0  0  0
   -6.0823   -0.3314    8.3993 C   0  0  0  0  0  4           0  0  0
   -0.1483   -1.0982    5.8771 C   0  0  0  0  0  4           0  0  0
   -2.0097    0.0805    5.2386 C   0  0  0  0  0  4           0  0  0
   -0.3077   -0.5509    3.6681 C   0  0  0  0  0  4           0  0  0
   -4.0566   -0.7503    7.4009 C   0  0  0  0  0  4           0  0  0
   -5.3722    1.0208    6.6854 C   0  0  0  0  0  4           0  0  0
   -4.1952    0.3114    6.5252 C   0  0  0  0  0  4           0  0  0
   -1.5432    0.0827    3.8992 C   0  0  0  0  0  4           0  0  0
   -9.0968   -0.5822   10.6504 C   0  0  0  0  0  4           0  0  0
  -10.4811   -0.4167   10.5615 C   0  0  0  0  0  4           0  0  0
   -9.3263   -1.7992   12.7137 C   0  0  0  0  0  4           0  0  0
    0.2090   -0.5796    2.3749 C   0  0  0  0  0  4           0  0  0
   -2.2263    0.6637    2.7994 C   0  0  0  0  0  4           0  0  0
   -8.5108   -1.2710   11.7150 C   0  0  0  0  0  4           0  0  0
   -8.2315   -0.0383    9.5770 C   0  0  0  0  0  4           0  0  0
    4.0794    3.6467   -1.5294 C   0  0  0  0  0  4           0  0  0
    1.4280   -0.0000    0.0000 C   0  0  0  0  0  4           0  0  0
   -3.5503    1.8003    0.6414 C   0  0  0  0  0  4           0  0  0
    3.4165    2.9000   -2.6798 C   0  0  0  0  0  4           0  0  0
    1.4673    2.1779   -1.3527 C   0  0  0  0  0  4           0  0  0
    1.2631    4.0813   -2.9042 C   0  0  0  0  0  4           0  0  0
    1.9237    0.7202   -1.2474 C   0  0  0  0  0  4           0  0  0
    1.5309    4.5001   -4.3459 C   0  0  0  0  0  4           0  0  0
  1 18  1  0     0  0
  2  4  2  0     0  0
  2  5  1  0     0  0
  2  6  1  0     0  0
  2  7  1  0     0  0
  3 19  1  0     0  0
  5 37  1  0     0  0
  8 20  1  0     0  0
  8 38  1  0     0  0
  9 21  1  0     0  0
  9 39  1  0     0  0
 10 36  2  0     0  0
 11 22  2  0     0  0
 11 26  1  0     0  0
 12 22  1  0     0  0
 12 27  2  0     0  0
 13 23  1  0     0  0
 13 24  2  0     0  0
 14 23  2  0     0  0
 14 25  1  0     0  0
 15 24  1  0     0  0
 15 28  1  0     0  0
 16 22  1  0     0  0
 16 36  1  0     0  0
 17 40  1  0     0  0
 17 41  1  0     0  0
 17 42  1  0     0  0
 18 19  1  0     0  0
 18 31  2  0     0  0
 19 32  2  0     0  0
 20 21  1  0     0  0
 20 33  2  0     0  0
 21 34  2  0     0  0
 24 29  1  0     0  0
 25 29  2  0     0  0
 25 33  1  0     0  0
 26 28  2  0     0  0
 27 28  1  0     0  0
 29 34  1  0     0  0
 30 31  1  0     0  0
 30 35  2  0     0  0
 30 36  1  0     0  0
 32 35  1  0     0  0
 37 40  1  0     0  0
 38 43  1  0     0  0
 41 43  1  0     0  0
 42 44  1  0     0  0
M  END
> <standard_type>
pIC50

> <# Confs.>
25

> <canonical_smiles>
FC1=CC=C(C(NC2=NC=C(NC3=NC=NC4=C3C=C(OC)C(OCCCN(CC)CCOP(O)(O)=O)=C4)C=N2)=O)C=C1Cl

> <standard_relation>
=

> <Publication_ID>
nan

> <predicted_activity_value>
7.721246399047171

> <actual_activity_value>
7.920818753952375

> <Compound>
24

> <standard_units>
nM

> hash
9306251387136053245

$$$$
28_
XXILIB    08252103423D 0   0.00000     0.00000

 41 45  0     1  0            999 V2000
   -7.2924    6.0901    8.6336 F   0  0  0  0  0  1           0  0  0
    1.3659    0.0000   -0.0000 O   0  0  0  0  0  2           0  0  0
   -0.1962   -0.0175    2.4379 O   0  0  0  0  0  2           0  0  0
   -9.5892    3.4941    3.2402 O   0  0  0  0  0  2           0  0  0
    2.6996   -8.9522    0.3575 O   0  0  0  0  0  2           0  0  0
   -8.1434    1.3908    0.7353 N   0  0  0  0  0  3           0  0  0
   -7.0026    1.0931    0.0955 N   0  0  0  0  0  3           0  0  0
   -4.7869   -0.0279   -1.5260 N   0  0  0  0  0  3           0  0  0
   -2.6131    0.0479   -2.5368 N   0  0  0  0  0  3           0  0  0
   -5.0558   -0.1440    0.8413 N   0  0  0  0  0  3           0  0  0
   -8.5554    2.2194    4.8872 N   0  0  0  0  0  3           0  0  0
    3.3218   -3.8291    0.4825 N   0  0  1  0  0  3           0  0  0
   -7.6026    5.1607    7.7188 C   0  0  0  0  0  4           0  0  0
    0.0000    0.0000    0.0000 C   0  0  0  0  0  4           0  0  0
   -0.7341    0.0000    1.1817 C   0  0  0  0  0  4           0  0  0
   -3.9535    0.0332   -2.5741 C   0  0  0  0  0  4           0  0  0
   -6.2951    0.3922    0.9947 C   0  0  0  0  0  4           0  0  0
   -4.2166   -0.0931   -0.2975 C   0  0  0  0  0  4           0  0  0
   -2.0464    0.0105   -1.3239 C   0  0  0  0  0  4           0  0  0
   -8.2077    0.9153    2.0139 C   0  0  0  0  0  4           0  0  0
   -8.2486    3.2314    5.8162 C   0  0  0  0  0  4           0  0  0
   -2.8079   -0.0499   -0.1383 C   0  0  0  0  0  4           0  0  0
   -8.2455    5.5418    6.5454 C   0  0  0  0  0  4           0  0  0
   -7.2785    3.8297    7.9577 C   0  0  0  0  0  4           0  0  0
   -0.6578    0.0295   -1.2337 C   0  0  0  0  0  4           0  0  0
   -2.1277   -0.0537    1.1074 C   0  0  0  0  0  4           0  0  0
   -7.0169    0.2531    2.2095 C   0  0  0  0  0  4           0  0  0
   -8.5699    4.5767    5.5910 C   0  0  0  0  0  4           0  0  0
   -7.6014    2.8640    7.0041 C   0  0  0  0  0  4           0  0  0
   -9.1915    2.4132    3.6734 C   0  0  0  0  0  4           0  0  0
    1.9792   -1.1167    0.6447 C   0  0  0  0  0  4           0  0  0
    2.0262   -7.8862   -0.2999 C   0  0  0  0  0  4           0  0  0
    0.0602    1.2637    3.0074 C   0  0  0  0  0  4           0  0  0
    4.0820   -2.5797    0.5764 C   0  0  0  0  0  4           0  0  0
    3.0207   -4.1765   -0.9158 C   0  0  0  0  0  4           0  0  0
    4.0596   -4.9181    1.1416 C   0  0  0  0  0  4           0  0  0
   -9.3801    1.1303    2.8968 C   0  0  0  0  0  4           0  0  0
    2.8907   -6.6319   -0.3039 C   0  0  1  0  0  4           0  0  0
    3.3182   -1.3979   -0.0252 C   0  0  0  0  0  4           0  0  0
    2.1914   -5.4608   -1.0074 C   0  0  0  0  0  4           0  0  0
    3.2620   -6.2230    1.1239 C   0  0  0  0  0  4           0  0  0
  1 13  1  0     0  0
  2 14  1  0     0  0
  2 31  1  0     0  0
  3 15  1  0     0  0
  3 33  1  0     0  0
  4 30  2  0     0  0
  5 32  1  0     0  0
  6  7  1  0     0  0
  6 20  1  0     0  0
  7 17  2  0     0  0
  8 16  1  0     0  0
  8 18  2  0     0  0
  9 16  2  0     0  0
  9 19  1  0     0  0
 10 17  1  0     0  0
 10 18  1  0     0  0
 11 21  1  0     0  0
 11 30  1  0     0  0
 12 34  1  0     0  0
 12 35  1  0     0  0
 12 36  1  0     0  0
 13 23  2  0     0  0
 13 24  1  0     0  0
 14 15  1  0     0  0
 14 25  2  0     0  0
 15 26  2  0     0  0
 17 27  1  0     0  0
 18 22  1  0     0  0
 19 22  2  0     0  0
 19 25  1  0     0  0
 20 27  2  0     0  0
 20 37  1  0     0  0
 21 28  2  0     0  0
 21 29  1  0     0  0
 22 26  1  0     0  0
 23 28  1  0     0  0
 24 29  2  0     0  0
 30 37  1  0     0  0
 31 39  1  0     0  0
 32 38  1  0     0  0
 34 39  1  0     0  0
 35 40  1  0     0  0
 36 41  1  0     0  0
 38 40  1  0     0  0
 38 41  1  0     0  0
M  END
> <standard_type>
pIC50

> <# Confs.>
25

> <canonical_smiles>
O=C(CC1=CC(NC2=NC=NC3=C2C=C(OC)C(OCCCN4CCC(CO)CC4)=C3)=NN1)NC5=CC=C(F)C=C5

> <standard_relation>
=

> <Publication_ID>
nan

> <predicted_activity_value>
7.886056647693163

> <actual_activity_value>
7.522878745280337

> <Compound>
28

> <standard_units>
nM

> hash
4878043526410304601

$$$$
28_
XXILIB    08252103423D 0   0.00000     0.00000

 41 45  0     1  0            999 V2000
  -12.9626   -5.8019    3.8863 F   0  0  0  0  0  1           0  0  0
    1.3659    0.0000   -0.0000 O   0  0  0  0  0  2           0  0  0
   -0.1962   -0.0175    2.4379 O   0  0  0  0  0  2           0  0  0
  -11.2533    0.0396    1.8717 O   0  0  0  0  0  2           0  0  0
    2.6996   -8.9522    0.3575 O   0  0  0  0  0  2           0  0  0
   -8.1434    1.3908    0.7353 N   0  0  0  0  0  3           0  0  0
   -7.0026    1.0931    0.0955 N   0  0  0  0  0  3           0  0  0
   -4.7869   -0.0279   -1.5260 N   0  0  0  0  0  3           0  0  0
   -2.6131    0.0479   -2.5368 N   0  0  0  0  0  3           0  0  0
   -5.0558   -0.1440    0.8413 N   0  0  0  0  0  3           0  0  0
  -10.1155   -1.0684    3.5700 N   0  0  0  0  0  3           0  0  0
    3.3218   -3.8291    0.4825 N   0  0  1  0  0  3           0  0  0
  -12.2804   -4.6512    3.8015 C   0  0  0  0  0  4           0  0  0
    0.0000    0.0000    0.0000 C   0  0  0  0  0  4           0  0  0
   -0.7341    0.0000    1.1817 C   0  0  0  0  0  4           0  0  0
   -3.9535    0.0332   -2.5741 C   0  0  0  0  0  4           0  0  0
   -6.2951    0.3922    0.9947 C   0  0  0  0  0  4           0  0  0
   -4.2166   -0.0931   -0.2975 C   0  0  0  0  0  4           0  0  0
   -2.0464    0.0105   -1.3239 C   0  0  0  0  0  4           0  0  0
   -8.2077    0.9153    2.0139 C   0  0  0  0  0  4           0  0  0
  -10.8641   -2.2591    3.6229 C   0  0  0  0  0  4           0  0  0
   -2.8079   -0.0499   -0.1383 C   0  0  0  0  0  4           0  0  0
  -12.6715   -3.6892    2.8757 C   0  0  0  0  0  4           0  0  0
  -11.1910   -4.4376    4.6391 C   0  0  0  0  0  4           0  0  0
   -0.6578    0.0295   -1.2337 C   0  0  0  0  0  4           0  0  0
   -2.1277   -0.0537    1.1074 C   0  0  0  0  0  4           0  0  0
   -7.0169    0.2531    2.2095 C   0  0  0  0  0  4           0  0  0
  -11.9632   -2.4901    2.7848 C   0  0  0  0  0  4           0  0  0
  -10.4827   -3.2390    4.5499 C   0  0  0  0  0  4           0  0  0
  -10.3578   -0.0079    2.7144 C   0  0  0  0  0  4           0  0  0
    1.9792   -1.1167    0.6447 C   0  0  0  0  0  4           0  0  0
    2.0262   -7.8862   -0.2999 C   0  0  0  0  0  4           0  0  0
    0.0602    1.2637    3.0074 C   0  0  0  0  0  4           0  0  0
    4.0820   -2.5797    0.5764 C   0  0  0  0  0  4           0  0  0
    3.0207   -4.1765   -0.9158 C   0  0  0  0  0  4           0  0  0
    4.0596   -4.9181    1.1416 C   0  0  0  0  0  4           0  0  0
   -9.3801    1.1303    2.8968 C   0  0  0  0  0  4           0  0  0
    2.8907   -6.6319   -0.3039 C   0  0  1  0  0  4           0  0  0
    3.3182   -1.3979   -0.0252 C   0  0  0  0  0  4           0  0  0
    2.1914   -5.4608   -1.0074 C   0  0  0  0  0  4           0  0  0
    3.2620   -6.2230    1.1239 C   0  0  0  0  0  4           0  0  0
  1 13  1  0     0  0
  2 14  1  0     0  0
  2 31  1  0     0  0
  3 15  1  0     0  0
  3 33  1  0     0  0
  4 30  2  0     0  0
  5 32  1  0     0  0
  6  7  1  0     0  0
  6 20  1  0     0  0
  7 17  2  0     0  0
  8 16  1  0     0  0
  8 18  2  0     0  0
  9 16  2  0     0  0
  9 19  1  0     0  0
 10 17  1  0     0  0
 10 18  1  0     0  0
 11 21  1  0     0  0
 11 30  1  0     0  0
 12 34  1  0     0  0
 12 35  1  0     0  0
 12 36  1  0     0  0
 13 23  2  0     0  0
 13 24  1  0     0  0
 14 15  1  0     0  0
 14 25  2  0     0  0
 15 26  2  0     0  0
 17 27  1  0     0  0
 18 22  1  0     0  0
 19 22  2  0     0  0
 19 25  1  0     0  0
 20 27  2  0     0  0
 20 37  1  0     0  0
 21 28  2  0     0  0
 21 29  1  0     0  0
 22 26  1  0     0  0
 23 28  1  0     0  0
 24 29  2  0     0  0
 30 37  1  0     0  0
 31 39  1  0     0  0
 32 38  1  0     0  0
 34 39  1  0     0  0
 35 40  1  0     0  0
 36 41  1  0     0  0
 38 40  1  0     0  0
 38 41  1  0     0  0
M  END
> <standard_type>
pIC50

> <# Confs.>
25

> <canonical_smiles>
O=C(CC1=CC(NC2=NC=NC3=C2C=C(OC)C(OCCCN4CCC(CO)CC4)=C3)=NN1)NC5=CC=C(F)C=C5

> <standard_relation>
=

> <Publication_ID>
nan

> <predicted_activity_value>
7.886056647693163

> <actual_activity_value>
7.522878745280337

> <Compound>
28

> <standard_units>
nM

> hash
4878043526410304601

$$$$
28_
XXILIB    08252103423D 0   0.00000     0.00000

 41 45  0     1  0            999 V2000
   -7.3379   -7.0509    7.9749 F   0  0  0  0  0  1           0  0  0
    1.3659    0.0000   -0.0000 O   0  0  0  0  0  2           0  0  0
   -0.1962   -0.0175    2.4379 O   0  0  0  0  0  2           0  0  0
   -9.6473   -3.9223    2.8777 O   0  0  0  0  0  2           0  0  0
    2.6996   -8.9522    0.3575 O   0  0  0  0  0  2           0  0  0
   -8.1666   -1.6128    0.5838 N   0  0  0  0  0  3           0  0  0
   -7.0189   -1.2740   -0.0225 N   0  0  0  0  0  3           0  0  0
   -4.7869   -0.0279   -1.5260 N   0  0  0  0  0  3           0  0  0
   -2.6131    0.0479   -2.5368 N   0  0  0  0  0  3           0  0  0
   -5.0558   -0.1440    0.8413 N   0  0  0  0  0  3           0  0  0
   -8.5763   -2.8248    4.6256 N   0  0  0  0  0  3           0  0  0
    3.3218   -3.8291    0.4825 N   0  0  1  0  0  3           0  0  0
   -7.6435   -6.0345    7.1563 C   0  0  0  0  0  4           0  0  0
   -0.0000    0.0000    0.0000 C   0  0  0  0  0  4           0  0  0
   -0.7341    0.0000    1.1817 C   0  0  0  0  0  4           0  0  0
   -3.9535    0.0332   -2.5741 C   0  0  0  0  0  4           0  0  0
   -6.3025   -0.6758    0.9415 C   0  0  0  0  0  4           0  0  0
   -4.2166   -0.0931   -0.2975 C   0  0  0  0  0  4           0  0  0
   -2.0464    0.0105   -1.3239 C   0  0  0  0  0  4           0  0  0
   -8.2286   -1.2585    1.9012 C   0  0  0  0  0  4           0  0  0
   -8.2795   -3.9241    5.4529 C   0  0  0  0  0  4           0  0  0
   -2.8079   -0.0499   -0.1383 C   0  0  0  0  0  4           0  0  0
   -8.3181   -6.2914    5.9670 C   0  0  0  0  0  4           0  0  0
   -7.2798   -4.7390    7.5075 C   0  0  0  0  0  4           0  0  0
   -0.6578    0.0295   -1.2337 C   0  0  0  0  0  4           0  0  0
   -2.1277   -0.0537    1.1074 C   0  0  0  0  0  4           0  0  0
   -7.0223   -0.6500    2.1652 C   0  0  0  0  0  4           0  0  0
   -8.6377   -5.2354    5.1123 C   0  0  0  0  0  4           0  0  0
   -7.5994   -3.6824    6.6545 C   0  0  0  0  0  4           0  0  0
   -9.2369   -2.8922    3.4112 C   0  0  0  0  0  4           0  0  0
    1.9792   -1.1167    0.6447 C   0  0  0  0  0  4           0  0  0
    2.0262   -7.8862   -0.2999 C   0  0  0  0  0  4           0  0  0
    0.0602    1.2637    3.0074 C   0  0  0  0  0  4           0  0  0
    4.0820   -2.5797    0.5764 C   0  0  0  0  0  4           0  0  0
    3.0207   -4.1765   -0.9158 C   0  0  0  0  0  4           0  0  0
    4.0596   -4.9181    1.1416 C   0  0  0  0  0  4           0  0  0
   -9.4064   -1.5397    2.7580 C   0  0  0  0  0  4           0  0  0
    2.8907   -6.6319   -0.3039 C   0  0  1  0  0  4           0  0  0
    3.3182   -1.3979   -0.0252 C   0  0  0  0  0  4           0  0  0
    2.1914   -5.4608   -1.0074 C   0  0  0  0  0  4           0  0  0
    3.2620   -6.2230    1.1239 C   0  0  0  0  0  4           0  0  0
  1 13  1  0     0  0
  2 14  1  0     0  0
  2 31  1  0     0  0
  3 15  1  0     0  0
  3 33  1  0     0  0
  4 30  2  0     0  0
  5 32  1  0     0  0
  6  7  1  0     0  0
  6 20  1  0     0  0
  7 17  2  0     0  0
  8 16  1  0     0  0
  8 18  2  0     0  0
  9 16  2  0     0  0
  9 19  1  0     0  0
 10 17  1  0     0  0
 10 18  1  0     0  0
 11 21  1  0     0  0
 11 30  1  0     0  0
 12 34  1  0     0  0
 12 35  1  0     0  0
 12 36  1  0     0  0
 13 23  2  0     0  0
 13 24  1  0     0  0
 14 15  1  0     0  0
 14 25  2  0     0  0
 15 26  2  0     0  0
 17 27  1  0     0  0
 18 22  1  0     0  0
 19 22  2  0     0  0
 19 25  1  0     0  0
 20 27  2  0     0  0
 20 37  1  0     0  0
 21 28  2  0     0  0
 21 29  1  0     0  0
 22 26  1  0     0  0
 23 28  1  0     0  0
 24 29  2  0     0  0
 30 37  1  0     0  0
 31 39  1  0     0  0
 32 38  1  0     0  0
 34 39  1  0     0  0
 35 40  1  0     0  0
 36 41  1  0     0  0
 38 40  1  0     0  0
 38 41  1  0     0  0
M  END
> <standard_type>
pIC50

> <# Confs.>
25

> <canonical_smiles>
O=C(CC1=CC(NC2=NC=NC3=C2C=C(OC)C(OCCCN4CCC(CO)CC4)=C3)=NN1)NC5=CC=C(F)C=C5

> <standard_relation>
=

> <Publication_ID>
nan

> <predicted_activity_value>
7.886056647693163

> <actual_activity_value>
7.522878745280337

> <Compound>
28

> <standard_units>
nM

> hash
4878043526410304601

$$$$
28_
XXILIB    08252103423D 0   0.00000     0.00000

 41 45  0     1  0            999 V2000
   -7.2924    6.0901    8.6336 F   0  0  0  0  0  1           0  0  0
    1.3659   -0.0000    0.0000 O   0  0  0  0  0  2           0  0  0
   -0.1962   -0.0175    2.4379 O   0  0  0  0  0  2           0  0  0
   -9.5892    3.4941    3.2402 O   0  0  0  0  0  2           0  0  0
    8.9847   -0.8326   -4.5187 O   0  0  0  0  0  2           0  0  0
   -8.1434    1.3908    0.7353 N   0  0  0  0  0  3           0  0  0
   -7.0026    1.0931    0.0955 N   0  0  0  0  0  3           0  0  0
   -4.7869   -0.0279   -1.5260 N   0  0  0  0  0  3           0  0  0
   -2.6131    0.0479   -2.5368 N   0  0  0  0  0  3           0  0  0
   -5.0558   -0.1440    0.8413 N   0  0  0  0  0  3           0  0  0
   -8.5554    2.2194    4.8872 N   0  0  0  0  0  3           0  0  0
    5.5766   -0.5514   -0.6181 N   0  0  1  0  0  3           0  0  0
   -7.6026    5.1607    7.7188 C   0  0  0  0  0  4           0  0  0
    0.0000    0.0000    0.0000 C   0  0  0  0  0  4           0  0  0
   -0.7341    0.0000    1.1817 C   0  0  0  0  0  4           0  0  0
   -3.9535    0.0332   -2.5741 C   0  0  0  0  0  4           0  0  0
   -6.2951    0.3922    0.9947 C   0  0  0  0  0  4           0  0  0
   -4.2166   -0.0931   -0.2975 C   0  0  0  0  0  4           0  0  0
   -2.0464    0.0105   -1.3239 C   0  0  0  0  0  4           0  0  0
   -8.2077    0.9153    2.0139 C   0  0  0  0  0  4           0  0  0
   -8.2486    3.2314    5.8162 C   0  0  0  0  0  4           0  0  0
   -2.8079   -0.0499   -0.1383 C   0  0  0  0  0  4           0  0  0
   -8.2455    5.5418    6.5454 C   0  0  0  0  0  4           0  0  0
   -7.2785    3.8297    7.9577 C   0  0  0  0  0  4           0  0  0
   -0.6578    0.0295   -1.2337 C   0  0  0  0  0  4           0  0  0
   -2.1277   -0.0537    1.1074 C   0  0  0  0  0  4           0  0  0
   -7.0169    0.2531    2.2095 C   0  0  0  0  0  4           0  0  0
   -8.5699    4.5767    5.5910 C   0  0  0  0  0  4           0  0  0
   -7.6014    2.8640    7.0041 C   0  0  0  0  0  4           0  0  0
   -9.1915    2.4132    3.6734 C   0  0  0  0  0  4           0  0  0
    1.9792   -1.1167    0.6447 C   0  0  0  0  0  4           0  0  0
    9.1025   -0.5414   -3.1319 C   0  0  0  0  0  4           0  0  0
    0.0602    1.2637    3.0074 C   0  0  0  0  0  4           0  0  0
    4.3065   -0.2313    0.0392 C   0  0  0  0  0  4           0  0  0
    5.3839   -0.8760   -2.0408 C   0  0  0  0  0  4           0  0  0
    6.5198    0.5671   -0.4630 C   0  0  0  0  0  4           0  0  0
   -9.3801    1.1303    2.8968 C   0  0  0  0  0  4           0  0  0
    7.7517   -0.1356   -2.5561 C   0  0  1  0  0  4           0  0  0
    3.3182   -1.3979   -0.0252 C   0  0  0  0  0  4           0  0  0
    6.7078   -1.2494   -2.7141 C   0  0  0  0  0  4           0  0  0
    7.8813    0.2382   -1.0772 C   0  0  0  0  0  4           0  0  0
  1 13  1  0     0  0
  2 14  1  0     0  0
  2 31  1  0     0  0
  3 15  1  0     0  0
  3 33  1  0     0  0
  4 30  2  0     0  0
  5 32  1  0     0  0
  6  7  1  0     0  0
  6 20  1  0     0  0
  7 17  2  0     0  0
  8 16  1  0     0  0
  8 18  2  0     0  0
  9 16  2  0     0  0
  9 19  1  0     0  0
 10 17  1  0     0  0
 10 18  1  0     0  0
 11 21  1  0     0  0
 11 30  1  0     0  0
 12 34  1  0     0  0
 12 35  1  0     0  0
 12 36  1  0     0  0
 13 23  2  0     0  0
 13 24  1  0     0  0
 14 15  1  0     0  0
 14 25  2  0     0  0
 15 26  2  0     0  0
 17 27  1  0     0  0
 18 22  1  0     0  0
 19 22  2  0     0  0
 19 25  1  0     0  0
 20 27  2  0     0  0
 20 37  1  0     0  0
 21 28  2  0     0  0
 21 29  1  0     0  0
 22 26  1  0     0  0
 23 28  1  0     0  0
 24 29  2  0     0  0
 30 37  1  0     0  0
 31 39  1  0     0  0
 32 38  1  0     0  0
 34 39  1  0     0  0
 35 40  1  0     0  0
 36 41  1  0     0  0
 38 40  1  0     0  0
 38 41  1  0     0  0
M  END
> <standard_type>
pIC50

> <# Confs.>
25

> <canonical_smiles>
O=C(CC1=CC(NC2=NC=NC3=C2C=C(OC)C(OCCCN4CCC(CO)CC4)=C3)=NN1)NC5=CC=C(F)C=C5

> <standard_relation>
=

> <Publication_ID>
nan

> <predicted_activity_value>
7.886056647693163

> <actual_activity_value>
7.522878745280337

> <Compound>
28

> <standard_units>
nM

> hash
4878043526410304601

$$$$
28_
XXILIB    08252103423D 0   0.00000     0.00000

 41 45  0     1  0            999 V2000
   -7.3379   -7.0509    7.9749 F   0  0  0  0  0  1           0  0  0
    1.3659    0.0000    0.0000 O   0  0  0  0  0  2           0  0  0
   -0.1962   -0.0175    2.4379 O   0  0  0  0  0  2           0  0  0
   -9.6473   -3.9223    2.8777 O   0  0  0  0  0  2           0  0  0
    7.1646    0.8455    6.1001 O   0  0  0  0  0  2           0  0  0
   -8.1666   -1.6128    0.5838 N   0  0  0  0  0  3           0  0  0
   -7.0189   -1.2740   -0.0225 N   0  0  0  0  0  3           0  0  0
   -4.7869   -0.0279   -1.5260 N   0  0  0  0  0  3           0  0  0
   -2.6131    0.0479   -2.5368 N   0  0  0  0  0  3           0  0  0
   -5.0558   -0.1440    0.8413 N   0  0  0  0  0  3           0  0  0
   -8.5763   -2.8248    4.6256 N   0  0  0  0  0  3           0  0  0
    4.3846    2.3721    1.9952 N   0  0  1  0  0  3           0  0  0
   -7.6435   -6.0345    7.1563 C   0  0  0  0  0  4           0  0  0
   -0.0000    0.0000    0.0000 C   0  0  0  0  0  4           0  0  0
   -0.7341    0.0000    1.1817 C   0  0  0  0  0  4           0  0  0
   -3.9535    0.0332   -2.5741 C   0  0  0  0  0  4           0  0  0
   -6.3025   -0.6758    0.9415 C   0  0  0  0  0  4           0  0  0
   -4.2166   -0.0931   -0.2975 C   0  0  0  0  0  4           0  0  0
   -2.0464    0.0105   -1.3239 C   0  0  0  0  0  4           0  0  0
   -8.2286   -1.2585    1.9012 C   0  0  0  0  0  4           0  0  0
   -8.2795   -3.9241    5.4529 C   0  0  0  0  0  4           0  0  0
   -2.8079   -0.0499   -0.1383 C   0  0  0  0  0  4           0  0  0
   -8.3181   -6.2914    5.9670 C   0  0  0  0  0  4           0  0  0
   -7.2798   -4.7390    7.5075 C   0  0  0  0  0  4           0  0  0
   -0.6578    0.0295   -1.2337 C   0  0  0  0  0  4           0  0  0
   -2.1277   -0.0537    1.1074 C   0  0  0  0  0  4           0  0  0
   -7.0223   -0.6500    2.1652 C   0  0  0  0  0  4           0  0  0
   -8.6377   -5.2354    5.1123 C   0  0  0  0  0  4           0  0  0
   -7.5994   -3.6824    6.6545 C   0  0  0  0  0  4           0  0  0
   -9.2369   -2.8922    3.4112 C   0  0  0  0  0  4           0  0  0
    1.9792    1.1167    0.6447 C   0  0  0  0  0  4           0  0  0
    6.3393    1.9736    5.8385 C   0  0  0  0  0  4           0  0  0
    0.0261   -1.3142    2.9862 C   0  0  0  0  0  4           0  0  0
    4.0820    2.5797    0.5764 C   0  0  0  0  0  4           0  0  0
    5.2120    1.1725    2.2029 C   0  0  0  0  0  4           0  0  0
    5.0479    3.5634    2.5481 C   0  0  0  0  0  4           0  0  0
   -9.4064   -1.5397    2.7580 C   0  0  0  0  0  4           0  0  0
    6.1525    2.1605    4.3383 C   0  0  1  0  0  4           0  0  0
    3.3182    1.3979   -0.0252 C   0  0  0  0  0  4           0  0  0
    5.4920    0.9363    3.6900 C   0  0  0  0  0  4           0  0  0
    5.3152    3.4084    4.0460 C   0  0  0  0  0  4           0  0  0
  1 13  1  0     0  0
  2 14  1  0     0  0
  2 31  1  0     0  0
  3 15  1  0     0  0
  3 33  1  0     0  0
  4 30  2  0     0  0
  5 32  1  0     0  0
  6  7  1  0     0  0
  6 20  1  0     0  0
  7 17  2  0     0  0
  8 16  1  0     0  0
  8 18  2  0     0  0
  9 16  2  0     0  0
  9 19  1  0     0  0
 10 17  1  0     0  0
 10 18  1  0     0  0
 11 21  1  0     0  0
 11 30  1  0     0  0
 12 34  1  0     0  0
 12 35  1  0     0  0
 12 36  1  0     0  0
 13 23  2  0     0  0
 13 24  1  0     0  0
 14 15  1  0     0  0
 14 25  2  0     0  0
 15 26  2  0     0  0
 17 27  1  0     0  0
 18 22  1  0     0  0
 19 22  2  0     0  0
 19 25  1  0     0  0
 20 27  2  0     0  0
 20 37  1  0     0  0
 21 28  2  0     0  0
 21 29  1  0     0  0
 22 26  1  0     0  0
 23 28  1  0     0  0
 24 29  2  0     0  0
 30 37  1  0     0  0
 31 39  1  0     0  0
 32 38  1  0     0  0
 34 39  1  0     0  0
 35 40  1  0     0  0
 36 41  1  0     0  0
 38 40  1  0     0  0
 38 41  1  0     0  0
M  END
> <standard_type>
pIC50

> <# Confs.>
25

> <canonical_smiles>
O=C(CC1=CC(NC2=NC=NC3=C2C=C(OC)C(OCCCN4CCC(CO)CC4)=C3)=NN1)NC5=CC=C(F)C=C5

> <standard_relation>
=

> <Publication_ID>
nan

> <predicted_activity_value>
7.886056647693163

> <actual_activity_value>
7.522878745280337

> <Compound>
28

> <standard_units>
nM

> hash
4878043526410304601

$$$$
28_
XXILIB    08252103423D 0   0.00000     0.00000

 41 45  0     1  0            999 V2000
  -12.9626   -5.8019    3.8863 F   0  0  0  0  0  1           0  0  0
    1.3659   -0.0000    0.0000 O   0  0  0  0  0  2           0  0  0
   -0.1962   -0.0175    2.4379 O   0  0  0  0  0  2           0  0  0
  -11.2533    0.0396    1.8717 O   0  0  0  0  0  2           0  0  0
    8.9847   -0.8326   -4.5187 O   0  0  0  0  0  2           0  0  0
   -8.1434    1.3908    0.7353 N   0  0  0  0  0  3           0  0  0
   -7.0026    1.0931    0.0955 N   0  0  0  0  0  3           0  0  0
   -4.7869   -0.0279   -1.5260 N   0  0  0  0  0  3           0  0  0
   -2.6131    0.0479   -2.5368 N   0  0  0  0  0  3           0  0  0
   -5.0558   -0.1440    0.8413 N   0  0  0  0  0  3           0  0  0
  -10.1155   -1.0684    3.5700 N   0  0  0  0  0  3           0  0  0
    5.5766   -0.5514   -0.6181 N   0  0  1  0  0  3           0  0  0
  -12.2804   -4.6512    3.8015 C   0  0  0  0  0  4           0  0  0
    0.0000    0.0000    0.0000 C   0  0  0  0  0  4           0  0  0
   -0.7341    0.0000    1.1817 C   0  0  0  0  0  4           0  0  0
   -3.9535    0.0332   -2.5741 C   0  0  0  0  0  4           0  0  0
   -6.2951    0.3922    0.9947 C   0  0  0  0  0  4           0  0  0
   -4.2166   -0.0931   -0.2975 C   0  0  0  0  0  4           0  0  0
   -2.0464    0.0105   -1.3239 C   0  0  0  0  0  4           0  0  0
   -8.2077    0.9153    2.0139 C   0  0  0  0  0  4           0  0  0
  -10.8641   -2.2591    3.6229 C   0  0  0  0  0  4           0  0  0
   -2.8079   -0.0499   -0.1383 C   0  0  0  0  0  4           0  0  0
  -12.6715   -3.6892    2.8757 C   0  0  0  0  0  4           0  0  0
  -11.1910   -4.4376    4.6391 C   0  0  0  0  0  4           0  0  0
   -0.6578    0.0295   -1.2337 C   0  0  0  0  0  4           0  0  0
   -2.1277   -0.0537    1.1074 C   0  0  0  0  0  4           0  0  0
   -7.0169    0.2531    2.2095 C   0  0  0  0  0  4           0  0  0
  -11.9632   -2.4901    2.7848 C   0  0  0  0  0  4           0  0  0
  -10.4827   -3.2390    4.5499 C   0  0  0  0  0  4           0  0  0
  -10.3578   -0.0079    2.7144 C   0  0  0  0  0  4           0  0  0
    1.9792   -1.1167    0.6447 C   0  0  0  0  0  4           0  0  0
    9.1025   -0.5414   -3.1319 C   0  0  0  0  0  4           0  0  0
    0.0602    1.2637    3.0074 C   0  0  0  0  0  4           0  0  0
    4.3065   -0.2313    0.0392 C   0  0  0  0  0  4           0  0  0
    5.3839   -0.8760   -2.0408 C   0  0  0  0  0  4           0  0  0
    6.5198    0.5671   -0.4630 C   0  0  0  0  0  4           0  0  0
   -9.3801    1.1303    2.8968 C   0  0  0  0  0  4           0  0  0
    7.7517   -0.1356   -2.5561 C   0  0  1  0  0  4           0  0  0
    3.3182   -1.3979   -0.0252 C   0  0  0  0  0  4           0  0  0
    6.7078   -1.2494   -2.7141 C   0  0  0  0  0  4           0  0  0
    7.8813    0.2382   -1.0772 C   0  0  0  0  0  4           0  0  0
  1 13  1  0     0  0
  2 14  1  0     0  0
  2 31  1  0     0  0
  3 15  1  0     0  0
  3 33  1  0     0  0
  4 30  2  0     0  0
  5 32  1  0     0  0
  6  7  1  0     0  0
  6 20  1  0     0  0
  7 17  2  0     0  0
  8 16  1  0     0  0
  8 18  2  0     0  0
  9 16  2  0     0  0
  9 19  1  0     0  0
 10 17  1  0     0  0
 10 18  1  0     0  0
 11 21  1  0     0  0
 11 30  1  0     0  0
 12 34  1  0     0  0
 12 35  1  0     0  0
 12 36  1  0     0  0
 13 23  2  0     0  0
 13 24  1  0     0  0
 14 15  1  0     0  0
 14 25  2  0     0  0
 15 26  2  0     0  0
 17 27  1  0     0  0
 18 22  1  0     0  0
 19 22  2  0     0  0
 19 25  1  0     0  0
 20 27  2  0     0  0
 20 37  1  0     0  0
 21 28  2  0     0  0
 21 29  1  0     0  0
 22 26  1  0     0  0
 23 28  1  0     0  0
 24 29  2  0     0  0
 30 37  1  0     0  0
 31 39  1  0     0  0
 32 38  1  0     0  0
 34 39  1  0     0  0
 35 40  1  0     0  0
 36 41  1  0     0  0
 38 40  1  0     0  0
 38 41  1  0     0  0
M  END
> <standard_type>
pIC50

> <# Confs.>
25

> <canonical_smiles>
O=C(CC1=CC(NC2=NC=NC3=C2C=C(OC)C(OCCCN4CCC(CO)CC4)=C3)=NN1)NC5=CC=C(F)C=C5

> <standard_relation>
=

> <Publication_ID>
nan

> <predicted_activity_value>
7.886056647693163

> <actual_activity_value>
7.522878745280337

> <Compound>
28

> <standard_units>
nM

> hash
4878043526410304601

$$$$
28_
XXILIB    08252103423D 0   0.00000     0.00000

 41 45  0     1  0            999 V2000
  -12.9454    5.2824    4.4321 F   0  0  0  0  0  1           0  0  0
    1.3659    0.0000   -0.0000 O   0  0  0  0  0  2           0  0  0
   -0.1962   -0.0175    2.4379 O   0  0  0  0  0  2           0  0  0
  -11.2620   -0.3328    1.8363 O   0  0  0  0  0  2           0  0  0
    2.6996   -8.9522    0.3575 O   0  0  0  0  0  2           0  0  0
   -8.1666   -1.6128    0.5838 N   0  0  0  0  0  3           0  0  0
   -7.0189   -1.2740   -0.0225 N   0  0  0  0  0  3           0  0  0
   -4.7869   -0.0279   -1.5260 N   0  0  0  0  0  3           0  0  0
   -2.6131    0.0479   -2.5368 N   0  0  0  0  0  3           0  0  0
   -5.0558   -0.1440    0.8413 N   0  0  0  0  0  3           0  0  0
  -10.1330    0.5821    3.6515 N   0  0  0  0  0  3           0  0  0
    3.3218   -3.8291    0.4825 N   0  0  1  0  0  3           0  0  0
  -12.2707    4.1413    4.2335 C   0  0  0  0  0  4           0  0  0
   -0.0000    0.0000    0.0000 C   0  0  0  0  0  4           0  0  0
   -0.7341    0.0000    1.1817 C   0  0  0  0  0  4           0  0  0
   -3.9535    0.0332   -2.5741 C   0  0  0  0  0  4           0  0  0
   -6.3025   -0.6758    0.9415 C   0  0  0  0  0  4           0  0  0
   -4.2166   -0.0931   -0.2975 C   0  0  0  0  0  4           0  0  0
   -2.0464    0.0105   -1.3239 C   0  0  0  0  0  4           0  0  0
   -8.2286   -1.2585    1.9012 C   0  0  0  0  0  4           0  0  0
  -10.8705    1.7692    3.8189 C   0  0  0  0  0  4           0  0  0
   -2.8079   -0.0499   -0.1383 C   0  0  0  0  0  4           0  0  0
  -12.6502    3.2919    3.1992 C   0  0  0  0  0  4           0  0  0
  -11.2029    3.8234    5.0657 C   0  0  0  0  0  4           0  0  0
   -0.6578    0.0295   -1.2337 C   0  0  0  0  0  4           0  0  0
   -2.1277   -0.0537    1.1074 C   0  0  0  0  0  4           0  0  0
   -7.0223   -0.6500    2.1652 C   0  0  0  0  0  4           0  0  0
  -11.9498    2.1030    2.9898 C   0  0  0  0  0  4           0  0  0
  -10.5014    2.6357    4.8570 C   0  0  0  0  0  4           0  0  0
  -10.3685   -0.3765    2.6814 C   0  0  0  0  0  4           0  0  0
    1.9792   -1.1167    0.6447 C   0  0  0  0  0  4           0  0  0
    2.0262   -7.8862   -0.2999 C   0  0  0  0  0  4           0  0  0
    0.0602    1.2637    3.0074 C   0  0  0  0  0  4           0  0  0
    4.0820   -2.5797    0.5764 C   0  0  0  0  0  4           0  0  0
    3.0207   -4.1765   -0.9158 C   0  0  0  0  0  4           0  0  0
    4.0596   -4.9181    1.1416 C   0  0  0  0  0  4           0  0  0
   -9.4064   -1.5397    2.7580 C   0  0  0  0  0  4           0  0  0
    2.8907   -6.6319   -0.3039 C   0  0  1  0  0  4           0  0  0
    3.3182   -1.3979   -0.0252 C   0  0  0  0  0  4           0  0  0
    2.1914   -5.4608   -1.0074 C   0  0  0  0  0  4           0  0  0
    3.2620   -6.2230    1.1239 C   0  0  0  0  0  4           0  0  0
  1 13  1  0     0  0
  2 14  1  0     0  0
  2 31  1  0     0  0
  3 15  1  0     0  0
  3 33  1  0     0  0
  4 30  2  0     0  0
  5 32  1  0     0  0
  6  7  1  0     0  0
  6 20  1  0     0  0
  7 17  2  0     0  0
  8 16  1  0     0  0
  8 18  2  0     0  0
  9 16  2  0     0  0
  9 19  1  0     0  0
 10 17  1  0     0  0
 10 18  1  0     0  0
 11 21  1  0     0  0
 11 30  1  0     0  0
 12 34  1  0     0  0
 12 35  1  0     0  0
 12 36  1  0     0  0
 13 23  2  0     0  0
 13 24  1  0     0  0
 14 15  1  0     0  0
 14 25  2  0     0  0
 15 26  2  0     0  0
 17 27  1  0     0  0
 18 22  1  0     0  0
 19 22  2  0     0  0
 19 25  1  0     0  0
 20 27  2  0     0  0
 20 37  1  0     0  0
 21 28  2  0     0  0
 21 29  1  0     0  0
 22 26  1  0     0  0
 23 28  1  0     0  0
 24 29  2  0     0  0
 30 37  1  0     0  0
 31 39  1  0     0  0
 32 38  1  0     0  0
 34 39  1  0     0  0
 35 40  1  0     0  0
 36 41  1  0     0  0
 38 40  1  0     0  0
 38 41  1  0     0  0
M  END
> <standard_type>
pIC50

> <# Confs.>
25

> <canonical_smiles>
O=C(CC1=CC(NC2=NC=NC3=C2C=C(OC)C(OCCCN4CCC(CO)CC4)=C3)=NN1)NC5=CC=C(F)C=C5

> <standard_relation>
=

> <Publication_ID>
nan

> <predicted_activity_value>
7.886056647693163

> <actual_activity_value>
7.522878745280337

> <Compound>
28

> <standard_units>
nM

> hash
4878043526410304601

$$$$
28_
XXILIB    08252103423D 0   0.00000     0.00000

 41 45  0     1  0            999 V2000
   -7.3379   -7.0509    7.9749 F   0  0  0  0  0  1           0  0  0
    1.3659    0.0000   -0.0000 O   0  0  0  0  0  2           0  0  0
   -0.1962   -0.0175    2.4379 O   0  0  0  0  0  2           0  0  0
   -9.6473   -3.9223    2.8777 O   0  0  0  0  0  2           0  0  0
    8.9657    0.8585   -4.5456 O   0  0  0  0  0  2           0  0  0
   -8.1666   -1.6128    0.5838 N   0  0  0  0  0  3           0  0  0
   -7.0189   -1.2740   -0.0225 N   0  0  0  0  0  3           0  0  0
   -4.7869   -0.0279   -1.5260 N   0  0  0  0  0  3           0  0  0
   -2.6131    0.0479   -2.5368 N   0  0  0  0  0  3           0  0  0
   -5.0558   -0.1440    0.8413 N   0  0  0  0  0  3           0  0  0
   -8.5763   -2.8248    4.6256 N   0  0  0  0  0  3           0  0  0
    4.5265    1.9909   -2.1125 N   0  0  1  0  0  3           0  0  0
   -7.6435   -6.0345    7.1563 C   0  0  0  0  0  4           0  0  0
   -0.0000    0.0000    0.0000 C   0  0  0  0  0  4           0  0  0
   -0.7341    0.0000    1.1817 C   0  0  0  0  0  4           0  0  0
   -3.9535    0.0332   -2.5741 C   0  0  0  0  0  4           0  0  0
   -6.3025   -0.6758    0.9415 C   0  0  0  0  0  4           0  0  0
   -4.2166   -0.0931   -0.2975 C   0  0  0  0  0  4           0  0  0
   -2.0464    0.0105   -1.3239 C   0  0  0  0  0  4           0  0  0
   -8.2286   -1.2585    1.9012 C   0  0  0  0  0  4           0  0  0
   -8.2795   -3.9241    5.4529 C   0  0  0  0  0  4           0  0  0
   -2.8079   -0.0499   -0.1383 C   0  0  0  0  0  4           0  0  0
   -8.3181   -6.2914    5.9670 C   0  0  0  0  0  4           0  0  0
   -7.2798   -4.7390    7.5075 C   0  0  0  0  0  4           0  0  0
   -0.6578    0.0295   -1.2337 C   0  0  0  0  0  4           0  0  0
   -2.1277   -0.0537    1.1074 C   0  0  0  0  0  4           0  0  0
   -7.0223   -0.6500    2.1652 C   0  0  0  0  0  4           0  0  0
   -8.6377   -5.2354    5.1123 C   0  0  0  0  0  4           0  0  0
   -7.5994   -3.6824    6.6545 C   0  0  0  0  0  4           0  0  0
   -9.2369   -2.8922    3.4112 C   0  0  0  0  0  4           0  0  0
    1.9792    1.1167    0.6447 C   0  0  0  0  0  4           0  0  0
    8.0679    1.9596   -4.6043 C   0  0  0  0  0  4           0  0  0
    0.0261   -1.3142    2.9862 C   0  0  0  0  0  4           0  0  0
    3.2140    1.7289   -1.5157 C   0  0  0  0  0  4           0  0  0
    5.4195    0.8271   -1.9901 C   0  0  0  0  0  4           0  0  0
    4.3699    2.3801   -3.5227 C   0  0  0  0  0  4           0  0  0
   -9.4064   -1.5397    2.7580 C   0  0  0  0  0  4           0  0  0
    6.7070    1.5677   -4.0430 C   0  0  1  0  0  4           0  0  0
    3.3182    1.3979   -0.0252 C   0  0  0  0  0  4           0  0  0
    6.8031    1.1188   -2.5785 C   0  0  0  0  0  4           0  0  0
    5.7165    2.7294   -4.1581 C   0  0  0  0  0  4           0  0  0
  1 13  1  0     0  0
  2 14  1  0     0  0
  2 31  1  0     0  0
  3 15  1  0     0  0
  3 33  1  0     0  0
  4 30  2  0     0  0
  5 32  1  0     0  0
  6  7  1  0     0  0
  6 20  1  0     0  0
  7 17  2  0     0  0
  8 16  1  0     0  0
  8 18  2  0     0  0
  9 16  2  0     0  0
  9 19  1  0     0  0
 10 17  1  0     0  0
 10 18  1  0     0  0
 11 21  1  0     0  0
 11 30  1  0     0  0
 12 34  1  0     0  0
 12 35  1  0     0  0
 12 36  1  0     0  0
 13 23  2  0     0  0
 13 24  1  0     0  0
 14 15  1  0     0  0
 14 25  2  0     0  0
 15 26  2  0     0  0
 17 27  1  0     0  0
 18 22  1  0     0  0
 19 22  2  0     0  0
 19 25  1  0     0  0
 20 27  2  0     0  0
 20 37  1  0     0  0
 21 28  2  0     0  0
 21 29  1  0     0  0
 22 26  1  0     0  0
 23 28  1  0     0  0
 24 29  2  0     0  0
 30 37  1  0     0  0
 31 39  1  0     0  0
 32 38  1  0     0  0
 34 39  1  0     0  0
 35 40  1  0     0  0
 36 41  1  0     0  0
 38 40  1  0     0  0
 38 41  1  0     0  0
M  END
> <standard_type>
pIC50

> <# Confs.>
25

> <canonical_smiles>
O=C(CC1=CC(NC2=NC=NC3=C2C=C(OC)C(OCCCN4CCC(CO)CC4)=C3)=NN1)NC5=CC=C(F)C=C5

> <standard_relation>
=

> <Publication_ID>
nan

> <predicted_activity_value>
7.886056647693163

> <actual_activity_value>
7.522878745280337

> <Compound>
28

> <standard_units>
nM

> hash
4878043526410304601

$$$$
28_
XXILIB    08252103423D 0   0.00000     0.00000

 41 45  0     1  0            999 V2000
   -7.3379   -7.0509    7.9749 F   0  0  0  0  0  1           0  0  0
    1.3659   -0.0000    0.0000 O   0  0  0  0  0  2           0  0  0
   -0.1962   -0.0175    2.4379 O   0  0  0  0  0  2           0  0  0
   -9.6473   -3.9223    2.8777 O   0  0  0  0  0  2           0  0  0
    8.9847   -0.8326   -4.5187 O   0  0  0  0  0  2           0  0  0
   -8.1666   -1.6128    0.5838 N   0  0  0  0  0  3           0  0  0
   -7.0189   -1.2740   -0.0225 N   0  0  0  0  0  3           0  0  0
   -4.7869   -0.0279   -1.5260 N   0  0  0  0  0  3           0  0  0
   -2.6131    0.0479   -2.5368 N   0  0  0  0  0  3           0  0  0
   -5.0558   -0.1440    0.8413 N   0  0  0  0  0  3           0  0  0
   -8.5763   -2.8248    4.6256 N   0  0  0  0  0  3           0  0  0
    5.5766   -0.5514   -0.6181 N   0  0  1  0  0  3           0  0  0
   -7.6435   -6.0345    7.1563 C   0  0  0  0  0  4           0  0  0
   -0.0000    0.0000    0.0000 C   0  0  0  0  0  4           0  0  0
   -0.7341    0.0000    1.1817 C   0  0  0  0  0  4           0  0  0
   -3.9535    0.0332   -2.5741 C   0  0  0  0  0  4           0  0  0
   -6.3025   -0.6758    0.9415 C   0  0  0  0  0  4           0  0  0
   -4.2166   -0.0931   -0.2975 C   0  0  0  0  0  4           0  0  0
   -2.0464    0.0105   -1.3239 C   0  0  0  0  0  4           0  0  0
   -8.2286   -1.2585    1.9012 C   0  0  0  0  0  4           0  0  0
   -8.2795   -3.9241    5.4529 C   0  0  0  0  0  4           0  0  0
   -2.8079   -0.0499   -0.1383 C   0  0  0  0  0  4           0  0  0
   -8.3181   -6.2914    5.9670 C   0  0  0  0  0  4           0  0  0
   -7.2798   -4.7390    7.5075 C   0  0  0  0  0  4           0  0  0
   -0.6578    0.0295   -1.2337 C   0  0  0  0  0  4           0  0  0
   -2.1277   -0.0537    1.1074 C   0  0  0  0  0  4           0  0  0
   -7.0223   -0.6500    2.1652 C   0  0  0  0  0  4           0  0  0
   -8.6377   -5.2354    5.1123 C   0  0  0  0  0  4           0  0  0
   -7.5994   -3.6824    6.6545 C   0  0  0  0  0  4           0  0  0
   -9.2369   -2.8922    3.4112 C   0  0  0  0  0  4           0  0  0
    1.9792   -1.1167    0.6447 C   0  0  0  0  0  4           0  0  0
    9.1025   -0.5414   -3.1319 C   0  0  0  0  0  4           0  0  0
    0.0602    1.2637    3.0074 C   0  0  0  0  0  4           0  0  0
    4.3065   -0.2313    0.0392 C   0  0  0  0  0  4           0  0  0
    5.3839   -0.8760   -2.0408 C   0  0  0  0  0  4           0  0  0
    6.5198    0.5671   -0.4630 C   0  0  0  0  0  4           0  0  0
   -9.4064   -1.5397    2.7580 C   0  0  0  0  0  4           0  0  0
    7.7517   -0.1356   -2.5561 C   0  0  1  0  0  4           0  0  0
    3.3182   -1.3979   -0.0252 C   0  0  0  0  0  4           0  0  0
    6.7078   -1.2494   -2.7141 C   0  0  0  0  0  4           0  0  0
    7.8813    0.2382   -1.0772 C   0  0  0  0  0  4           0  0  0
  1 13  1  0     0  0
  2 14  1  0     0  0
  2 31  1  0     0  0
  3 15  1  0     0  0
  3 33  1  0     0  0
  4 30  2  0     0  0
  5 32  1  0     0  0
  6  7  1  0     0  0
  6 20  1  0     0  0
  7 17  2  0     0  0
  8 16  1  0     0  0
  8 18  2  0     0  0
  9 16  2  0     0  0
  9 19  1  0     0  0
 10 17  1  0     0  0
 10 18  1  0     0  0
 11 21  1  0     0  0
 11 30  1  0     0  0
 12 34  1  0     0  0
 12 35  1  0     0  0
 12 36  1  0     0  0
 13 23  2  0     0  0
 13 24  1  0     0  0
 14 15  1  0     0  0
 14 25  2  0     0  0
 15 26  2  0     0  0
 17 27  1  0     0  0
 18 22  1  0     0  0
 19 22  2  0     0  0
 19 25  1  0     0  0
 20 27  2  0     0  0
 20 37  1  0     0  0
 21 28  2  0     0  0
 21 29  1  0     0  0
 22 26  1  0     0  0
 23 28  1  0     0  0
 24 29  2  0     0  0
 30 37  1  0     0  0
 31 39  1  0     0  0
 32 38  1  0     0  0
 34 39  1  0     0  0
 35 40  1  0     0  0
 36 41  1  0     0  0
 38 40  1  0     0  0
 38 41  1  0     0  0
M  END
> <standard_type>
pIC50

> <# Confs.>
25

> <canonical_smiles>
O=C(CC1=CC(NC2=NC=NC3=C2C=C(OC)C(OCCCN4CCC(CO)CC4)=C3)=NN1)NC5=CC=C(F)C=C5

> <standard_relation>
=

> <Publication_ID>
nan

> <predicted_activity_value>
7.886056647693163

> <actual_activity_value>
7.522878745280337

> <Compound>
28

> <standard_units>
nM

> hash
4878043526410304601

$$$$
28_
XXILIB    08252103423D 0   0.00000     0.00000

 41 45  0     1  0            999 V2000
   -7.2924    6.0901    8.6336 F   0  0  0  0  0  1           0  0  0
    1.3659   -0.0000    0.0000 O   0  0  0  0  0  2           0  0  0
   -0.1962   -0.0175    2.4379 O   0  0  0  0  0  2           0  0  0
   -9.5892    3.4941    3.2402 O   0  0  0  0  0  2           0  0  0
    8.5852   -4.8403   -3.6348 O   0  0  0  0  0  2           0  0  0
   -8.1434    1.3908    0.7353 N   0  0  0  0  0  3           0  0  0
   -7.0026    1.0931    0.0955 N   0  0  0  0  0  3           0  0  0
   -4.7869   -0.0279   -1.5260 N   0  0  0  0  0  3           0  0  0
   -2.6131    0.0479   -2.5368 N   0  0  0  0  0  3           0  0  0
   -5.0558   -0.1440    0.8413 N   0  0  0  0  0  3           0  0  0
   -8.5554    2.2194    4.8872 N   0  0  0  0  0  3           0  0  0
    4.5265   -1.9909   -2.1125 N   0  0  1  0  0  3           0  0  0
   -7.6026    5.1607    7.7188 C   0  0  0  0  0  4           0  0  0
    0.0000    0.0000    0.0000 C   0  0  0  0  0  4           0  0  0
   -0.7341    0.0000    1.1817 C   0  0  0  0  0  4           0  0  0
   -3.9535    0.0332   -2.5741 C   0  0  0  0  0  4           0  0  0
   -6.2951    0.3922    0.9947 C   0  0  0  0  0  4           0  0  0
   -4.2166   -0.0931   -0.2975 C   0  0  0  0  0  4           0  0  0
   -2.0464    0.0105   -1.3239 C   0  0  0  0  0  4           0  0  0
   -8.2077    0.9153    2.0139 C   0  0  0  0  0  4           0  0  0
   -8.2486    3.2314    5.8162 C   0  0  0  0  0  4           0  0  0
   -2.8079   -0.0499   -0.1383 C   0  0  0  0  0  4           0  0  0
   -8.2455    5.5418    6.5454 C   0  0  0  0  0  4           0  0  0
   -7.2785    3.8297    7.9577 C   0  0  0  0  0  4           0  0  0
   -0.6578    0.0295   -1.2337 C   0  0  0  0  0  4           0  0  0
   -2.1277   -0.0537    1.1074 C   0  0  0  0  0  4           0  0  0
   -7.0169    0.2531    2.2095 C   0  0  0  0  0  4           0  0  0
   -8.5699    4.5767    5.5910 C   0  0  0  0  0  4           0  0  0
   -7.6014    2.8640    7.0041 C   0  0  0  0  0  4           0  0  0
   -9.1915    2.4132    3.6734 C   0  0  0  0  0  4           0  0  0
    1.9792   -1.1167    0.6447 C   0  0  0  0  0  4           0  0  0
    7.8987   -3.7303   -4.1992 C   0  0  0  0  0  4           0  0  0
    0.0602    1.2637    3.0074 C   0  0  0  0  0  4           0  0  0
    3.2140   -1.7289   -1.5157 C   0  0  0  0  0  4           0  0  0
    5.1996   -3.1280   -1.4638 C   0  0  0  0  0  4           0  0  0
    4.3845   -2.2264   -3.5579 C   0  0  0  0  0  4           0  0  0
   -9.3801    1.1303    2.8968 C   0  0  0  0  0  4           0  0  0
    6.5138   -3.5898   -3.5804 C   0  0  1  0  0  4           0  0  0
    3.3182   -1.3979   -0.0252 C   0  0  0  0  0  4           0  0  0
    6.5877   -3.3728   -2.0629 C   0  0  0  0  0  4           0  0  0
    5.7447   -2.4339   -4.2257 C   0  0  0  0  0  4           0  0  0
  1 13  1  0     0  0
  2 14  1  0     0  0
  2 31  1  0     0  0
  3 15  1  0     0  0
  3 33  1  0     0  0
  4 30  2  0     0  0
  5 32  1  0     0  0
  6  7  1  0     0  0
  6 20  1  0     0  0
  7 17  2  0     0  0
  8 16  1  0     0  0
  8 18  2  0     0  0
  9 16  2  0     0  0
  9 19  1  0     0  0
 10 17  1  0     0  0
 10 18  1  0     0  0
 11 21  1  0     0  0
 11 30  1  0     0  0
 12 34  1  0     0  0
 12 35  1  0     0  0
 12 36  1  0     0  0
 13 23  2  0     0  0
 13 24  1  0     0  0
 14 15  1  0     0  0
 14 25  2  0     0  0
 15 26  2  0     0  0
 17 27  1  0     0  0
 18 22  1  0     0  0
 19 22  2  0     0  0
 19 25  1  0     0  0
 20 27  2  0     0  0
 20 37  1  0     0  0
 21 28  2  0     0  0
 21 29  1  0     0  0
 22 26  1  0     0  0
 23 28  1  0     0  0
 24 29  2  0     0  0
 30 37  1  0     0  0
 31 39  1  0     0  0
 32 38  1  0     0  0
 34 39  1  0     0  0
 35 40  1  0     0  0
 36 41  1  0     0  0
 38 40  1  0     0  0
 38 41  1  0     0  0
M  END
> <standard_type>
pIC50

> <# Confs.>
25

> <canonical_smiles>
O=C(CC1=CC(NC2=NC=NC3=C2C=C(OC)C(OCCCN4CCC(CO)CC4)=C3)=NN1)NC5=CC=C(F)C=C5

> <standard_relation>
=

> <Publication_ID>
nan

> <predicted_activity_value>
7.886056647693163

> <actual_activity_value>
7.522878745280337

> <Compound>
28

> <standard_units>
nM

> hash
4878043526410304601

$$$$
28_
XXILIB    08252103423D 0   0.00000     0.00000

 41 45  0     1  0            999 V2000
  -12.9626   -5.8019    3.8863 F   0  0  0  0  0  1           0  0  0
    1.3659   -0.0000    0.0000 O   0  0  0  0  0  2           0  0  0
   -0.1962   -0.0175    2.4379 O   0  0  0  0  0  2           0  0  0
  -11.2533    0.0396    1.8717 O   0  0  0  0  0  2           0  0  0
    8.5852   -4.8403   -3.6348 O   0  0  0  0  0  2           0  0  0
   -8.1434    1.3908    0.7353 N   0  0  0  0  0  3           0  0  0
   -7.0026    1.0931    0.0955 N   0  0  0  0  0  3           0  0  0
   -4.7869   -0.0279   -1.5260 N   0  0  0  0  0  3           0  0  0
   -2.6131    0.0479   -2.5368 N   0  0  0  0  0  3           0  0  0
   -5.0558   -0.1440    0.8413 N   0  0  0  0  0  3           0  0  0
  -10.1155   -1.0684    3.5700 N   0  0  0  0  0  3           0  0  0
    4.5265   -1.9909   -2.1125 N   0  0  1  0  0  3           0  0  0
  -12.2804   -4.6512    3.8015 C   0  0  0  0  0  4           0  0  0
    0.0000    0.0000    0.0000 C   0  0  0  0  0  4           0  0  0
   -0.7341    0.0000    1.1817 C   0  0  0  0  0  4           0  0  0
   -3.9535    0.0332   -2.5741 C   0  0  0  0  0  4           0  0  0
   -6.2951    0.3922    0.9947 C   0  0  0  0  0  4           0  0  0
   -4.2166   -0.0931   -0.2975 C   0  0  0  0  0  4           0  0  0
   -2.0464    0.0105   -1.3239 C   0  0  0  0  0  4           0  0  0
   -8.2077    0.9153    2.0139 C   0  0  0  0  0  4           0  0  0
  -10.8641   -2.2591    3.6229 C   0  0  0  0  0  4           0  0  0
   -2.8079   -0.0499   -0.1383 C   0  0  0  0  0  4           0  0  0
  -12.6715   -3.6892    2.8757 C   0  0  0  0  0  4           0  0  0
  -11.1910   -4.4376    4.6391 C   0  0  0  0  0  4           0  0  0
   -0.6578    0.0295   -1.2337 C   0  0  0  0  0  4           0  0  0
   -2.1277   -0.0537    1.1074 C   0  0  0  0  0  4           0  0  0
   -7.0169    0.2531    2.2095 C   0  0  0  0  0  4           0  0  0
  -11.9632   -2.4901    2.7848 C   0  0  0  0  0  4           0  0  0
  -10.4827   -3.2390    4.5499 C   0  0  0  0  0  4           0  0  0
  -10.3578   -0.0079    2.7144 C   0  0  0  0  0  4           0  0  0
    1.9792   -1.1167    0.6447 C   0  0  0  0  0  4           0  0  0
    7.8987   -3.7303   -4.1992 C   0  0  0  0  0  4           0  0  0
    0.0602    1.2637    3.0074 C   0  0  0  0  0  4           0  0  0
    3.2140   -1.7289   -1.5157 C   0  0  0  0  0  4           0  0  0
    5.1996   -3.1280   -1.4638 C   0  0  0  0  0  4           0  0  0
    4.3845   -2.2264   -3.5579 C   0  0  0  0  0  4           0  0  0
   -9.3801    1.1303    2.8968 C   0  0  0  0  0  4           0  0  0
    6.5138   -3.5898   -3.5804 C   0  0  1  0  0  4           0  0  0
    3.3182   -1.3979   -0.0252 C   0  0  0  0  0  4           0  0  0
    6.5877   -3.3728   -2.0629 C   0  0  0  0  0  4           0  0  0
    5.7447   -2.4339   -4.2257 C   0  0  0  0  0  4           0  0  0
  1 13  1  0     0  0
  2 14  1  0     0  0
  2 31  1  0     0  0
  3 15  1  0     0  0
  3 33  1  0     0  0
  4 30  2  0     0  0
  5 32  1  0     0  0
  6  7  1  0     0  0
  6 20  1  0     0  0
  7 17  2  0     0  0
  8 16  1  0     0  0
  8 18  2  0     0  0
  9 16  2  0     0  0
  9 19  1  0     0  0
 10 17  1  0     0  0
 10 18  1  0     0  0
 11 21  1  0     0  0
 11 30  1  0     0  0
 12 34  1  0     0  0
 12 35  1  0     0  0
 12 36  1  0     0  0
 13 23  2  0     0  0
 13 24  1  0     0  0
 14 15  1  0     0  0
 14 25  2  0     0  0
 15 26  2  0     0  0
 17 27  1  0     0  0
 18 22  1  0     0  0
 19 22  2  0     0  0
 19 25  1  0     0  0
 20 27  2  0     0  0
 20 37  1  0     0  0
 21 28  2  0     0  0
 21 29  1  0     0  0
 22 26  1  0     0  0
 23 28  1  0     0  0
 24 29  2  0     0  0
 30 37  1  0     0  0
 31 39  1  0     0  0
 32 38  1  0     0  0
 34 39  1  0     0  0
 35 40  1  0     0  0
 36 41  1  0     0  0
 38 40  1  0     0  0
 38 41  1  0     0  0
M  END
> <standard_type>
pIC50

> <# Confs.>
25

> <canonical_smiles>
O=C(CC1=CC(NC2=NC=NC3=C2C=C(OC)C(OCCCN4CCC(CO)CC4)=C3)=NN1)NC5=CC=C(F)C=C5

> <standard_relation>
=

> <Publication_ID>
nan

> <predicted_activity_value>
7.886056647693163

> <actual_activity_value>
7.522878745280337

> <Compound>
28

> <standard_units>
nM

> hash
4878043526410304601

$$$$
28_
XXILIB    08252103423D 0   0.00000     0.00000

 41 45  0     1  0            999 V2000
   -7.3379   -7.0509    7.9749 F   0  0  0  0  0  1           0  0  0
    1.3659   -0.0000    0.0000 O   0  0  0  0  0  2           0  0  0
   -0.1962   -0.0175    2.4379 O   0  0  0  0  0  2           0  0  0
   -9.6473   -3.9223    2.8777 O   0  0  0  0  0  2           0  0  0
    8.5852   -4.8403   -3.6348 O   0  0  0  0  0  2           0  0  0
   -8.1666   -1.6128    0.5838 N   0  0  0  0  0  3           0  0  0
   -7.0189   -1.2740   -0.0225 N   0  0  0  0  0  3           0  0  0
   -4.7869   -0.0279   -1.5260 N   0  0  0  0  0  3           0  0  0
   -2.6131    0.0479   -2.5368 N   0  0  0  0  0  3           0  0  0
   -5.0558   -0.1440    0.8413 N   0  0  0  0  0  3           0  0  0
   -8.5763   -2.8248    4.6256 N   0  0  0  0  0  3           0  0  0
    4.5265   -1.9909   -2.1125 N   0  0  1  0  0  3           0  0  0
   -7.6435   -6.0345    7.1563 C   0  0  0  0  0  4           0  0  0
   -0.0000    0.0000    0.0000 C   0  0  0  0  0  4           0  0  0
   -0.7341    0.0000    1.1817 C   0  0  0  0  0  4           0  0  0
   -3.9535    0.0332   -2.5741 C   0  0  0  0  0  4           0  0  0
   -6.3025   -0.6758    0.9415 C   0  0  0  0  0  4           0  0  0
   -4.2166   -0.0931   -0.2975 C   0  0  0  0  0  4           0  0  0
   -2.0464    0.0105   -1.3239 C   0  0  0  0  0  4           0  0  0
   -8.2286   -1.2585    1.9012 C   0  0  0  0  0  4           0  0  0
   -8.2795   -3.9241    5.4529 C   0  0  0  0  0  4           0  0  0
   -2.8079   -0.0499   -0.1383 C   0  0  0  0  0  4           0  0  0
   -8.3181   -6.2914    5.9670 C   0  0  0  0  0  4           0  0  0
   -7.2798   -4.7390    7.5075 C   0  0  0  0  0  4           0  0  0
   -0.6578    0.0295   -1.2337 C   0  0  0  0  0  4           0  0  0
   -2.1277   -0.0537    1.1074 C   0  0  0  0  0  4           0  0  0
   -7.0223   -0.6500    2.1652 C   0  0  0  0  0  4           0  0  0
   -8.6377   -5.2354    5.1123 C   0  0  0  0  0  4           0  0  0
   -7.5994   -3.6824    6.6545 C   0  0  0  0  0  4           0  0  0
   -9.2369   -2.8922    3.4112 C   0  0  0  0  0  4           0  0  0
    1.9792   -1.1167    0.6447 C   0  0  0  0  0  4           0  0  0
    7.8987   -3.7303   -4.1992 C   0  0  0  0  0  4           0  0  0
    0.0602    1.2637    3.0074 C   0  0  0  0  0  4           0  0  0
    3.2140   -1.7289   -1.5157 C   0  0  0  0  0  4           0  0  0
    5.1996   -3.1280   -1.4638 C   0  0  0  0  0  4           0  0  0
    4.3845   -2.2264   -3.5579 C   0  0  0  0  0  4           0  0  0
   -9.4064   -1.5397    2.7580 C   0  0  0  0  0  4           0  0  0
    6.5138   -3.5898   -3.5804 C   0  0  1  0  0  4           0  0  0
    3.3182   -1.3979   -0.0252 C   0  0  0  0  0  4           0  0  0
    6.5877   -3.3728   -2.0629 C   0  0  0  0  0  4           0  0  0
    5.7447   -2.4339   -4.2257 C   0  0  0  0  0  4           0  0  0
  1 13  1  0     0  0
  2 14  1  0     0  0
  2 31  1  0     0  0
  3 15  1  0     0  0
  3 33  1  0     0  0
  4 30  2  0     0  0
  5 32  1  0     0  0
  6  7  1  0     0  0
  6 20  1  0     0  0
  7 17  2  0     0  0
  8 16  1  0     0  0
  8 18  2  0     0  0
  9 16  2  0     0  0
  9 19  1  0     0  0
 10 17  1  0     0  0
 10 18  1  0     0  0
 11 21  1  0     0  0
 11 30  1  0     0  0
 12 34  1  0     0  0
 12 35  1  0     0  0
 12 36  1  0     0  0
 13 23  2  0     0  0
 13 24  1  0     0  0
 14 15  1  0     0  0
 14 25  2  0     0  0
 15 26  2  0     0  0
 17 27  1  0     0  0
 18 22  1  0     0  0
 19 22  2  0     0  0
 19 25  1  0     0  0
 20 27  2  0     0  0
 20 37  1  0     0  0
 21 28  2  0     0  0
 21 29  1  0     0  0
 22 26  1  0     0  0
 23 28  1  0     0  0
 24 29  2  0     0  0
 30 37  1  0     0  0
 31 39  1  0     0  0
 32 38  1  0     0  0
 34 39  1  0     0  0
 35 40  1  0     0  0
 36 41  1  0     0  0
 38 40  1  0     0  0
 38 41  1  0     0  0
M  END
> <standard_type>
pIC50

> <# Confs.>
25

> <canonical_smiles>
O=C(CC1=CC(NC2=NC=NC3=C2C=C(OC)C(OCCCN4CCC(CO)CC4)=C3)=NN1)NC5=CC=C(F)C=C5

> <standard_relation>
=

> <Publication_ID>
nan

> <predicted_activity_value>
7.886056647693163

> <actual_activity_value>
7.522878745280337

> <Compound>
28

> <standard_units>
nM

> hash
4878043526410304601

$$$$
28_
XXILIB    08252103423D 0   0.00000     0.00000

 41 45  0     1  0            999 V2000
   -7.3379   -7.0509    7.9749 F   0  0  0  0  0  1           0  0  0
    1.3659    0.0000    0.0000 O   0  0  0  0  0  2           0  0  0
   -0.1962   -0.0175    2.4379 O   0  0  0  0  0  2           0  0  0
   -9.6473   -3.9223    2.8777 O   0  0  0  0  0  2           0  0  0
    1.3975    7.9635   -2.4384 O   0  0  0  0  0  2           0  0  0
   -8.1666   -1.6128    0.5838 N   0  0  0  0  0  3           0  0  0
   -7.0189   -1.2740   -0.0225 N   0  0  0  0  0  3           0  0  0
   -4.7869   -0.0279   -1.5260 N   0  0  0  0  0  3           0  0  0
   -2.6131    0.0479   -2.5368 N   0  0  0  0  0  3           0  0  0
   -5.0558   -0.1440    0.8413 N   0  0  0  0  0  3           0  0  0
   -8.5763   -2.8248    4.6256 N   0  0  0  0  0  3           0  0  0
    2.3924    2.9182   -1.7573 N   0  0  1  0  0  3           0  0  0
   -7.6435   -6.0345    7.1563 C   0  0  0  0  0  4           0  0  0
   -0.0000    0.0000    0.0000 C   0  0  0  0  0  4           0  0  0
   -0.7341    0.0000    1.1817 C   0  0  0  0  0  4           0  0  0
   -3.9535    0.0332   -2.5741 C   0  0  0  0  0  4           0  0  0
   -6.3025   -0.6758    0.9415 C   0  0  0  0  0  4           0  0  0
   -4.2166   -0.0931   -0.2975 C   0  0  0  0  0  4           0  0  0
   -2.0464    0.0105   -1.3239 C   0  0  0  0  0  4           0  0  0
   -8.2286   -1.2585    1.9012 C   0  0  0  0  0  4           0  0  0
   -8.2795   -3.9241    5.4529 C   0  0  0  0  0  4           0  0  0
   -2.8079   -0.0499   -0.1383 C   0  0  0  0  0  4           0  0  0
   -8.3181   -6.2914    5.9670 C   0  0  0  0  0  4           0  0  0
   -7.2798   -4.7390    7.5075 C   0  0  0  0  0  4           0  0  0
   -0.6578    0.0295   -1.2337 C   0  0  0  0  0  4           0  0  0
   -2.1277   -0.0537    1.1074 C   0  0  0  0  0  4           0  0  0
   -7.0223   -0.6500    2.1652 C   0  0  0  0  0  4           0  0  0
   -8.6377   -5.2354    5.1123 C   0  0  0  0  0  4           0  0  0
   -7.5994   -3.6824    6.6545 C   0  0  0  0  0  4           0  0  0
   -9.2369   -2.8922    3.4112 C   0  0  0  0  0  4           0  0  0
    1.9792    1.1167    0.6447 C   0  0  0  0  0  4           0  0  0
    0.8922    6.7748   -3.0330 C   0  0  0  0  0  4           0  0  0
    0.0261   -1.3142    2.9862 C   0  0  0  0  0  4           0  0  0
    3.2140    1.7289   -1.5157 C   0  0  0  0  0  4           0  0  0
    2.9488    4.1060   -1.0892 C   0  0  0  0  0  4           0  0  0
    2.2566    3.1510   -3.2037 C   0  0  0  0  0  4           0  0  0
   -9.4064   -1.5397    2.7580 C   0  0  0  0  0  4           0  0  0
    1.8531    5.6150   -2.8047 C   0  0  1  0  0  4           0  0  0
    3.3182    1.3979   -0.0252 C   0  0  0  0  0  4           0  0  0
    2.0658    5.3377   -1.3103 C   0  0  0  0  0  4           0  0  0
    1.3461    4.3452   -3.4935 C   0  0  0  0  0  4           0  0  0
  1 13  1  0     0  0
  2 14  1  0     0  0
  2 31  1  0     0  0
  3 15  1  0     0  0
  3 33  1  0     0  0
  4 30  2  0     0  0
  5 32  1  0     0  0
  6  7  1  0     0  0
  6 20  1  0     0  0
  7 17  2  0     0  0
  8 16  1  0     0  0
  8 18  2  0     0  0
  9 16  2  0     0  0
  9 19  1  0     0  0
 10 17  1  0     0  0
 10 18  1  0     0  0
 11 21  1  0     0  0
 11 30  1  0     0  0
 12 34  1  0     0  0
 12 35  1  0     0  0
 12 36  1  0     0  0
 13 23  2  0     0  0
 13 24  1  0     0  0
 14 15  1  0     0  0
 14 25  2  0     0  0
 15 26  2  0     0  0
 17 27  1  0     0  0
 18 22  1  0     0  0
 19 22  2  0     0  0
 19 25  1  0     0  0
 20 27  2  0     0  0
 20 37  1  0     0  0
 21 28  2  0     0  0
 21 29  1  0     0  0
 22 26  1  0     0  0
 23 28  1  0     0  0
 24 29  2  0     0  0
 30 37  1  0     0  0
 31 39  1  0     0  0
 32 38  1  0     0  0
 34 39  1  0     0  0
 35 40  1  0     0  0
 36 41  1  0     0  0
 38 40  1  0     0  0
 38 41  1  0     0  0
M  END
> <standard_type>
pIC50

> <# Confs.>
25

> <canonical_smiles>
O=C(CC1=CC(NC2=NC=NC3=C2C=C(OC)C(OCCCN4CCC(CO)CC4)=C3)=NN1)NC5=CC=C(F)C=C5

> <standard_relation>
=

> <Publication_ID>
nan

> <predicted_activity_value>
7.886056647693163

> <actual_activity_value>
7.522878745280337

> <Compound>
28

> <standard_units>
nM

> hash
4878043526410304601

$$$$
28_
XXILIB    08252103423D 0   0.00000     0.00000

 41 45  0     1  0            999 V2000
   -7.2924    6.0901    8.6336 F   0  0  0  0  0  1           0  0  0
    1.3659    0.0000    0.0000 O   0  0  0  0  0  2           0  0  0
   -0.1962   -0.0175    2.4379 O   0  0  0  0  0  2           0  0  0
   -9.5892    3.4941    3.2402 O   0  0  0  0  0  2           0  0  0
    4.5330   -7.3669   -2.6923 O   0  0  0  0  0  2           0  0  0
   -8.1434    1.3908    0.7353 N   0  0  0  0  0  3           0  0  0
   -7.0026    1.0931    0.0955 N   0  0  0  0  0  3           0  0  0
   -4.7869   -0.0279   -1.5260 N   0  0  0  0  0  3           0  0  0
   -2.6131    0.0479   -2.5368 N   0  0  0  0  0  3           0  0  0
   -5.0558   -0.1440    0.8413 N   0  0  0  0  0  3           0  0  0
   -8.5554    2.2194    4.8872 N   0  0  0  0  0  3           0  0  0
    3.9688   -3.4028    0.6056 N   0  0  1  0  0  3           0  0  0
   -7.6026    5.1607    7.7188 C   0  0  0  0  0  4           0  0  0
    0.0000    0.0000    0.0000 C   0  0  0  0  0  4           0  0  0
   -0.7341    0.0000    1.1817 C   0  0  0  0  0  4           0  0  0
   -3.9535    0.0332   -2.5741 C   0  0  0  0  0  4           0  0  0
   -6.2951    0.3922    0.9947 C   0  0  0  0  0  4           0  0  0
   -4.2166   -0.0931   -0.2975 C   0  0  0  0  0  4           0  0  0
   -2.0464    0.0105   -1.3239 C   0  0  0  0  0  4           0  0  0
   -8.2077    0.9153    2.0139 C   0  0  0  0  0  4           0  0  0
   -8.2486    3.2314    5.8162 C   0  0  0  0  0  4           0  0  0
   -2.8079   -0.0499   -0.1383 C   0  0  0  0  0  4           0  0  0
   -8.2455    5.5418    6.5454 C   0  0  0  0  0  4           0  0  0
   -7.2785    3.8297    7.9577 C   0  0  0  0  0  4           0  0  0
   -0.6578    0.0295   -1.2337 C   0  0  0  0  0  4           0  0  0
   -2.1277   -0.0537    1.1074 C   0  0  0  0  0  4           0  0  0
   -7.0169    0.2531    2.2095 C   0  0  0  0  0  4           0  0  0
   -8.5699    4.5767    5.5910 C   0  0  0  0  0  4           0  0  0
   -7.6014    2.8640    7.0041 C   0  0  0  0  0  4           0  0  0
   -9.1915    2.4132    3.6734 C   0  0  0  0  0  4           0  0  0
    1.9792   -1.1167    0.6447 C   0  0  0  0  0  4           0  0  0
    4.1989   -7.2780   -1.3130 C   0  0  0  0  0  4           0  0  0
    0.0602    1.2637    3.0074 C   0  0  0  0  0  4           0  0  0
    4.2734   -2.1056    1.2156 C   0  0  0  0  0  4           0  0  0
    4.3051   -3.4201   -0.8273 C   0  0  0  0  0  4           0  0  0
    4.6802   -4.4745    1.3197 C   0  0  0  0  0  4           0  0  0
   -9.3801    1.1303    2.8968 C   0  0  0  0  0  4           0  0  0
    4.6308   -5.9316   -0.7460 C   0  0  1  0  0  4           0  0  0
    3.4927   -0.9657    0.5575 C   0  0  0  0  0  4           0  0  0
    3.9476   -4.7635   -1.4700 C   0  0  0  0  0  4           0  0  0
    4.3295   -5.8510    0.7528 C   0  0  0  0  0  4           0  0  0
  1 13  1  0     0  0
  2 14  1  0     0  0
  2 31  1  0     0  0
  3 15  1  0     0  0
  3 33  1  0     0  0
  4 30  2  0     0  0
  5 32  1  0     0  0
  6  7  1  0     0  0
  6 20  1  0     0  0
  7 17  2  0     0  0
  8 16  1  0     0  0
  8 18  2  0     0  0
  9 16  2  0     0  0
  9 19  1  0     0  0
 10 17  1  0     0  0
 10 18  1  0     0  0
 11 21  1  0     0  0
 11 30  1  0     0  0
 12 34  1  0     0  0
 12 35  1  0     0  0
 12 36  1  0     0  0
 13 23  2  0     0  0
 13 24  1  0     0  0
 14 15  1  0     0  0
 14 25  2  0     0  0
 15 26  2  0     0  0
 17 27  1  0     0  0
 18 22  1  0     0  0
 19 22  2  0     0  0
 19 25  1  0     0  0
 20 27  2  0     0  0
 20 37  1  0     0  0
 21 28  2  0     0  0
 21 29  1  0     0  0
 22 26  1  0     0  0
 23 28  1  0     0  0
 24 29  2  0     0  0
 30 37  1  0     0  0
 31 39  1  0     0  0
 32 38  1  0     0  0
 34 39  1  0     0  0
 35 40  1  0     0  0
 36 41  1  0     0  0
 38 40  1  0     0  0
 38 41  1  0     0  0
M  END
> <standard_type>
pIC50

> <# Confs.>
25

> <canonical_smiles>
O=C(CC1=CC(NC2=NC=NC3=C2C=C(OC)C(OCCCN4CCC(CO)CC4)=C3)=NN1)NC5=CC=C(F)C=C5

> <standard_relation>
=

> <Publication_ID>
nan

> <predicted_activity_value>
7.886056647693163

> <actual_activity_value>
7.522878745280337

> <Compound>
28

> <standard_units>
nM

> hash
4878043526410304601

$$$$
28_
XXILIB    08252103423D 0   0.00000     0.00000

 41 45  0     1  0            999 V2000
   -7.2924    6.0901    8.6336 F   0  0  0  0  0  1           0  0  0
    1.3659    0.0000    0.0000 O   0  0  0  0  0  2           0  0  0
   -0.1962   -0.0175    2.4379 O   0  0  0  0  0  2           0  0  0
   -9.5892    3.4941    3.2402 O   0  0  0  0  0  2           0  0  0
   10.4526   -2.3158   -0.9623 O   0  0  0  0  0  2           0  0  0
   -8.1434    1.3908    0.7353 N   0  0  0  0  0  3           0  0  0
   -7.0026    1.0931    0.0955 N   0  0  0  0  0  3           0  0  0
   -4.7869   -0.0279   -1.5260 N   0  0  0  0  0  3           0  0  0
   -2.6131    0.0479   -2.5368 N   0  0  0  0  0  3           0  0  0
   -5.0558   -0.1440    0.8413 N   0  0  0  0  0  3           0  0  0
   -8.5554    2.2194    4.8872 N   0  0  0  0  0  3           0  0  0
    5.3609   -2.8086   -0.1017 N   0  0  1  0  0  3           0  0  0
   -7.6026    5.1607    7.7188 C   0  0  0  0  0  4           0  0  0
    0.0000    0.0000    0.0000 C   0  0  0  0  0  4           0  0  0
   -0.7341    0.0000    1.1817 C   0  0  0  0  0  4           0  0  0
   -3.9535    0.0332   -2.5741 C   0  0  0  0  0  4           0  0  0
   -6.2951    0.3922    0.9947 C   0  0  0  0  0  4           0  0  0
   -4.2166   -0.0931   -0.2975 C   0  0  0  0  0  4           0  0  0
   -2.0464    0.0105   -1.3239 C   0  0  0  0  0  4           0  0  0
   -8.2077    0.9153    2.0139 C   0  0  0  0  0  4           0  0  0
   -8.2486    3.2314    5.8162 C   0  0  0  0  0  4           0  0  0
   -2.8079   -0.0499   -0.1383 C   0  0  0  0  0  4           0  0  0
   -8.2455    5.5418    6.5454 C   0  0  0  0  0  4           0  0  0
   -7.2785    3.8297    7.9577 C   0  0  0  0  0  4           0  0  0
   -0.6578    0.0295   -1.2337 C   0  0  0  0  0  4           0  0  0
   -2.1277   -0.0537    1.1074 C   0  0  0  0  0  4           0  0  0
   -7.0169    0.2531    2.2095 C   0  0  0  0  0  4           0  0  0
   -8.5699    4.5767    5.5910 C   0  0  0  0  0  4           0  0  0
   -7.6014    2.8640    7.0041 C   0  0  0  0  0  4           0  0  0
   -9.1915    2.4132    3.6734 C   0  0  0  0  0  4           0  0  0
    1.9792   -1.1167    0.6447 C   0  0  0  0  0  4           0  0  0
    9.5444   -3.4068   -1.0458 C   0  0  0  0  0  4           0  0  0
    0.0602    1.2637    3.0074 C   0  0  0  0  0  4           0  0  0
    4.0820   -2.5797    0.5764 C   0  0  0  0  0  4           0  0  0
    6.2417   -1.6329   -0.0087 C   0  0  0  0  0  4           0  0  0
    6.0213   -3.9986    0.4573 C   0  0  0  0  0  4           0  0  0
   -9.3801    1.1303    2.8968 C   0  0  0  0  0  4           0  0  0
    8.2845   -3.1139   -0.2411 C   0  0  1  0  0  4           0  0  0
    3.3182   -1.3979   -0.0252 C   0  0  0  0  0  4           0  0  0
    7.5605   -1.8612   -0.7530 C   0  0  0  0  0  4           0  0  0
    7.3273   -4.3081   -0.2759 C   0  0  0  0  0  4           0  0  0
  1 13  1  0     0  0
  2 14  1  0     0  0
  2 31  1  0     0  0
  3 15  1  0     0  0
  3 33  1  0     0  0
  4 30  2  0     0  0
  5 32  1  0     0  0
  6  7  1  0     0  0
  6 20  1  0     0  0
  7 17  2  0     0  0
  8 16  1  0     0  0
  8 18  2  0     0  0
  9 16  2  0     0  0
  9 19  1  0     0  0
 10 17  1  0     0  0
 10 18  1  0     0  0
 11 21  1  0     0  0
 11 30  1  0     0  0
 12 34  1  0     0  0
 12 35  1  0     0  0
 12 36  1  0     0  0
 13 23  2  0     0  0
 13 24  1  0     0  0
 14 15  1  0     0  0
 14 25  2  0     0  0
 15 26  2  0     0  0
 17 27  1  0     0  0
 18 22  1  0     0  0
 19 22  2  0     0  0
 19 25  1  0     0  0
 20 27  2  0     0  0
 20 37  1  0     0  0
 21 28  2  0     0  0
 21 29  1  0     0  0
 22 26  1  0     0  0
 23 28  1  0     0  0
 24 29  2  0     0  0
 30 37  1  0     0  0
 31 39  1  0     0  0
 32 38  1  0     0  0
 34 39  1  0     0  0
 35 40  1  0     0  0
 36 41  1  0     0  0
 38 40  1  0     0  0
 38 41  1  0     0  0
M  END
> <standard_type>
pIC50

> <# Confs.>
25

> <canonical_smiles>
O=C(CC1=CC(NC2=NC=NC3=C2C=C(OC)C(OCCCN4CCC(CO)CC4)=C3)=NN1)NC5=CC=C(F)C=C5

> <standard_relation>
=

> <Publication_ID>
nan

> <predicted_activity_value>
7.886056647693163

> <actual_activity_value>
7.522878745280337

> <Compound>
28

> <standard_units>
nM

> hash
4878043526410304601

$$$$
28_
XXILIB    08252103423D 0   0.00000     0.00000

 41 45  0     1  0            999 V2000
  -12.9454    5.2824    4.4321 F   0  0  0  0  0  1           0  0  0
    1.3659    0.0000    0.0000 O   0  0  0  0  0  2           0  0  0
   -0.1962   -0.0175    2.4379 O   0  0  0  0  0  2           0  0  0
  -11.2620   -0.3328    1.8363 O   0  0  0  0  0  2           0  0  0
    7.1646    0.8455    6.1001 O   0  0  0  0  0  2           0  0  0
   -8.1666   -1.6128    0.5838 N   0  0  0  0  0  3           0  0  0
   -7.0189   -1.2740   -0.0225 N   0  0  0  0  0  3           0  0  0
   -4.7869   -0.0279   -1.5260 N   0  0  0  0  0  3           0  0  0
   -2.6131    0.0479   -2.5368 N   0  0  0  0  0  3           0  0  0
   -5.0558   -0.1440    0.8413 N   0  0  0  0  0  3           0  0  0
  -10.1330    0.5821    3.6515 N   0  0  0  0  0  3           0  0  0
    4.3846    2.3721    1.9952 N   0  0  1  0  0  3           0  0  0
  -12.2707    4.1413    4.2335 C   0  0  0  0  0  4           0  0  0
   -0.0000    0.0000    0.0000 C   0  0  0  0  0  4           0  0  0
   -0.7341    0.0000    1.1817 C   0  0  0  0  0  4           0  0  0
   -3.9535    0.0332   -2.5741 C   0  0  0  0  0  4           0  0  0
   -6.3025   -0.6758    0.9415 C   0  0  0  0  0  4           0  0  0
   -4.2166   -0.0931   -0.2975 C   0  0  0  0  0  4           0  0  0
   -2.0464    0.0105   -1.3239 C   0  0  0  0  0  4           0  0  0
   -8.2286   -1.2585    1.9012 C   0  0  0  0  0  4           0  0  0
  -10.8705    1.7692    3.8189 C   0  0  0  0  0  4           0  0  0
   -2.8079   -0.0499   -0.1383 C   0  0  0  0  0  4           0  0  0
  -12.6502    3.2919    3.1992 C   0  0  0  0  0  4           0  0  0
  -11.2029    3.8234    5.0657 C   0  0  0  0  0  4           0  0  0
   -0.6578    0.0295   -1.2337 C   0  0  0  0  0  4           0  0  0
   -2.1277   -0.0537    1.1074 C   0  0  0  0  0  4           0  0  0
   -7.0223   -0.6500    2.1652 C   0  0  0  0  0  4           0  0  0
  -11.9498    2.1030    2.9898 C   0  0  0  0  0  4           0  0  0
  -10.5014    2.6357    4.8570 C   0  0  0  0  0  4           0  0  0
  -10.3685   -0.3765    2.6814 C   0  0  0  0  0  4           0  0  0
    1.9792    1.1167    0.6447 C   0  0  0  0  0  4           0  0  0
    6.3393    1.9736    5.8385 C   0  0  0  0  0  4           0  0  0
    0.0261   -1.3142    2.9862 C   0  0  0  0  0  4           0  0  0
    4.0820    2.5797    0.5764 C   0  0  0  0  0  4           0  0  0
    5.2120    1.1725    2.2029 C   0  0  0  0  0  4           0  0  0
    5.0479    3.5634    2.5481 C   0  0  0  0  0  4           0  0  0
   -9.4064   -1.5397    2.7580 C   0  0  0  0  0  4           0  0  0
    6.1525    2.1605    4.3383 C   0  0  1  0  0  4           0  0  0
    3.3182    1.3979   -0.0252 C   0  0  0  0  0  4           0  0  0
    5.4920    0.9363    3.6900 C   0  0  0  0  0  4           0  0  0
    5.3152    3.4084    4.0460 C   0  0  0  0  0  4           0  0  0
  1 13  1  0     0  0
  2 14  1  0     0  0
  2 31  1  0     0  0
  3 15  1  0     0  0
  3 33  1  0     0  0
  4 30  2  0     0  0
  5 32  1  0     0  0
  6  7  1  0     0  0
  6 20  1  0     0  0
  7 17  2  0     0  0
  8 16  1  0     0  0
  8 18  2  0     0  0
  9 16  2  0     0  0
  9 19  1  0     0  0
 10 17  1  0     0  0
 10 18  1  0     0  0
 11 21  1  0     0  0
 11 30  1  0     0  0
 12 34  1  0     0  0
 12 35  1  0     0  0
 12 36  1  0     0  0
 13 23  2  0     0  0
 13 24  1  0     0  0
 14 15  1  0     0  0
 14 25  2  0     0  0
 15 26  2  0     0  0
 17 27  1  0     0  0
 18 22  1  0     0  0
 19 22  2  0     0  0
 19 25  1  0     0  0
 20 27  2  0     0  0
 20 37  1  0     0  0
 21 28  2  0     0  0
 21 29  1  0     0  0
 22 26  1  0     0  0
 23 28  1  0     0  0
 24 29  2  0     0  0
 30 37  1  0     0  0
 31 39  1  0     0  0
 32 38  1  0     0  0
 34 39  1  0     0  0
 35 40  1  0     0  0
 36 41  1  0     0  0
 38 40  1  0     0  0
 38 41  1  0     0  0
M  END
> <standard_type>
pIC50

> <# Confs.>
25

> <canonical_smiles>
O=C(CC1=CC(NC2=NC=NC3=C2C=C(OC)C(OCCCN4CCC(CO)CC4)=C3)=NN1)NC5=CC=C(F)C=C5

> <standard_relation>
=

> <Publication_ID>
nan

> <predicted_activity_value>
7.886056647693163

> <actual_activity_value>
7.522878745280337

> <Compound>
28

> <standard_units>
nM

> hash
4878043526410304601

$$$$
28_
XXILIB    08252103423D 0   0.00000     0.00000

 41 45  0     1  0            999 V2000
   -8.6085    6.0907    8.9522 F   0  0  0  0  0  1           0  0  0
    1.3659    0.0000   -0.0000 O   0  0  0  0  0  2           0  0  0
   -0.1962   -0.0175    2.4379 O   0  0  0  0  0  2           0  0  0
   -9.0635    3.4978    3.1064 O   0  0  0  0  0  2           0  0  0
    1.7326   -8.2920   -1.6308 O   0  0  0  0  0  2           0  0  0
   -8.1434    1.3908    0.7353 N   0  0  0  0  0  3           0  0  0
   -7.0026    1.0931    0.0955 N   0  0  0  0  0  3           0  0  0
   -4.7869   -0.0279   -1.5260 N   0  0  0  0  0  3           0  0  0
   -2.6131    0.0479   -2.5368 N   0  0  0  0  0  3           0  0  0
   -5.0558   -0.1440    0.8413 N   0  0  0  0  0  3           0  0  0
   -9.1965    2.2189    5.0438 N   0  0  0  0  0  3           0  0  0
    3.3218   -3.8291    0.4825 N   0  0  1  0  0  3           0  0  0
   -8.7493    5.1609    7.9970 C   0  0  0  0  0  4           0  0  0
    0.0000    0.0000    0.0000 C   0  0  0  0  0  4           0  0  0
   -0.7341    0.0000    1.1817 C   0  0  0  0  0  4           0  0  0
   -3.9535    0.0332   -2.5741 C   0  0  0  0  0  4           0  0  0
   -6.2951    0.3922    0.9947 C   0  0  0  0  0  4           0  0  0
   -4.2166   -0.0931   -0.2975 C   0  0  0  0  0  4           0  0  0
   -2.0464    0.0105   -1.3239 C   0  0  0  0  0  4           0  0  0
   -8.2077    0.9153    2.0139 C   0  0  0  0  0  4           0  0  0
   -9.0421    3.2308    6.0100 C   0  0  0  0  0  4           0  0  0
   -2.8079   -0.0499   -0.1383 C   0  0  0  0  0  4           0  0  0
   -8.7163    5.5420    6.6594 C   0  0  0  0  0  4           0  0  0
   -8.9281    3.8299    8.3579 C   0  0  0  0  0  4           0  0  0
   -0.6578    0.0295   -1.2337 C   0  0  0  0  0  4           0  0  0
   -2.1277   -0.0537    1.1074 C   0  0  0  0  0  4           0  0  0
   -7.0169    0.2531    2.2095 C   0  0  0  0  0  4           0  0  0
   -8.8627    4.5764    5.6624 C   0  0  0  0  0  4           0  0  0
   -9.0737    2.8635    7.3624 C   0  0  0  0  0  4           0  0  0
   -9.1915    2.4132    3.6734 C   0  0  0  0  0  4           0  0  0
    1.9792   -1.1167    0.6447 C   0  0  0  0  0  4           0  0  0
    2.0262   -7.8862   -0.2999 C   0  0  0  0  0  4           0  0  0
    0.0602    1.2637    3.0074 C   0  0  0  0  0  4           0  0  0
    4.0820   -2.5797    0.5764 C   0  0  0  0  0  4           0  0  0
    3.0207   -4.1765   -0.9158 C   0  0  0  0  0  4           0  0  0
    4.0596   -4.9181    1.1416 C   0  0  0  0  0  4           0  0  0
   -9.3801    1.1303    2.8968 C   0  0  0  0  0  4           0  0  0
    2.8907   -6.6319   -0.3039 C   0  0  1  0  0  4           0  0  0
    3.3182   -1.3979   -0.0252 C   0  0  0  0  0  4           0  0  0
    2.1914   -5.4608   -1.0074 C   0  0  0  0  0  4           0  0  0
    3.2620   -6.2230    1.1239 C   0  0  0  0  0  4           0  0  0
  1 13  1  0     0  0
  2 14  1  0     0  0
  2 31  1  0     0  0
  3 15  1  0     0  0
  3 33  1  0     0  0
  4 30  2  0     0  0
  5 32  1  0     0  0
  6  7  1  0     0  0
  6 20  1  0     0  0
  7 17  2  0     0  0
  8 16  1  0     0  0
  8 18  2  0     0  0
  9 16  2  0     0  0
  9 19  1  0     0  0
 10 17  1  0     0  0
 10 18  1  0     0  0
 11 21  1  0     0  0
 11 30  1  0     0  0
 12 34  1  0     0  0
 12 35  1  0     0  0
 12 36  1  0     0  0
 13 23  2  0     0  0
 13 24  1  0     0  0
 14 15  1  0     0  0
 14 25  2  0     0  0
 15 26  2  0     0  0
 17 27  1  0     0  0
 18 22  1  0     0  0
 19 22  2  0     0  0
 19 25  1  0     0  0
 20 27  2  0     0  0
 20 37  1  0     0  0
 21 28  2  0     0  0
 21 29  1  0     0  0
 22 26  1  0     0  0
 23 28  1  0     0  0
 24 29  2  0     0  0
 30 37  1  0     0  0
 31 39  1  0     0  0
 32 38  1  0     0  0
 34 39  1  0     0  0
 35 40  1  0     0  0
 36 41  1  0     0  0
 38 40  1  0     0  0
 38 41  1  0     0  0
M  END
> <standard_type>
pIC50

> <# Confs.>
25

> <canonical_smiles>
O=C(CC1=CC(NC2=NC=NC3=C2C=C(OC)C(OCCCN4CCC(CO)CC4)=C3)=NN1)NC5=CC=C(F)C=C5

> <standard_relation>
=

> <Publication_ID>
nan

> <predicted_activity_value>
7.886056647693163

> <actual_activity_value>
7.522878745280337

> <Compound>
28

> <standard_units>
nM

> hash
4878043526410304601

$$$$
28_
XXILIB    08252103423D 0   0.00000     0.00000

 41 45  0     1  0            999 V2000
  -12.9626   -5.8019    3.8863 F   0  0  0  0  0  1           0  0  0
    1.3659    0.0000    0.0000 O   0  0  0  0  0  2           0  0  0
   -0.1962   -0.0175    2.4379 O   0  0  0  0  0  2           0  0  0
  -11.2533    0.0396    1.8717 O   0  0  0  0  0  2           0  0  0
    4.5330   -7.3669   -2.6923 O   0  0  0  0  0  2           0  0  0
   -8.1434    1.3908    0.7353 N   0  0  0  0  0  3           0  0  0
   -7.0026    1.0931    0.0955 N   0  0  0  0  0  3           0  0  0
   -4.7869   -0.0279   -1.5260 N   0  0  0  0  0  3           0  0  0
   -2.6131    0.0479   -2.5368 N   0  0  0  0  0  3           0  0  0
   -5.0558   -0.1440    0.8413 N   0  0  0  0  0  3           0  0  0
  -10.1155   -1.0684    3.5700 N   0  0  0  0  0  3           0  0  0
    3.9688   -3.4028    0.6056 N   0  0  1  0  0  3           0  0  0
  -12.2804   -4.6512    3.8015 C   0  0  0  0  0  4           0  0  0
    0.0000    0.0000    0.0000 C   0  0  0  0  0  4           0  0  0
   -0.7341    0.0000    1.1817 C   0  0  0  0  0  4           0  0  0
   -3.9535    0.0332   -2.5741 C   0  0  0  0  0  4           0  0  0
   -6.2951    0.3922    0.9947 C   0  0  0  0  0  4           0  0  0
   -4.2166   -0.0931   -0.2975 C   0  0  0  0  0  4           0  0  0
   -2.0464    0.0105   -1.3239 C   0  0  0  0  0  4           0  0  0
   -8.2077    0.9153    2.0139 C   0  0  0  0  0  4           0  0  0
  -10.8641   -2.2591    3.6229 C   0  0  0  0  0  4           0  0  0
   -2.8079   -0.0499   -0.1383 C   0  0  0  0  0  4           0  0  0
  -12.6715   -3.6892    2.8757 C   0  0  0  0  0  4           0  0  0
  -11.1910   -4.4376    4.6391 C   0  0  0  0  0  4           0  0  0
   -0.6578    0.0295   -1.2337 C   0  0  0  0  0  4           0  0  0
   -2.1277   -0.0537    1.1074 C   0  0  0  0  0  4           0  0  0
   -7.0169    0.2531    2.2095 C   0  0  0  0  0  4           0  0  0
  -11.9632   -2.4901    2.7848 C   0  0  0  0  0  4           0  0  0
  -10.4827   -3.2390    4.5499 C   0  0  0  0  0  4           0  0  0
  -10.3578   -0.0079    2.7144 C   0  0  0  0  0  4           0  0  0
    1.9792   -1.1167    0.6447 C   0  0  0  0  0  4           0  0  0
    4.1989   -7.2780   -1.3130 C   0  0  0  0  0  4           0  0  0
    0.0602    1.2637    3.0074 C   0  0  0  0  0  4           0  0  0
    4.2734   -2.1056    1.2156 C   0  0  0  0  0  4           0  0  0
    4.3051   -3.4201   -0.8273 C   0  0  0  0  0  4           0  0  0
    4.6802   -4.4745    1.3197 C   0  0  0  0  0  4           0  0  0
   -9.3801    1.1303    2.8968 C   0  0  0  0  0  4           0  0  0
    4.6308   -5.9316   -0.7460 C   0  0  1  0  0  4           0  0  0
    3.4927   -0.9657    0.5575 C   0  0  0  0  0  4           0  0  0
    3.9476   -4.7635   -1.4700 C   0  0  0  0  0  4           0  0  0
    4.3295   -5.8510    0.7528 C   0  0  0  0  0  4           0  0  0
  1 13  1  0     0  0
  2 14  1  0     0  0
  2 31  1  0     0  0
  3 15  1  0     0  0
  3 33  1  0     0  0
  4 30  2  0     0  0
  5 32  1  0     0  0
  6  7  1  0     0  0
  6 20  1  0     0  0
  7 17  2  0     0  0
  8 16  1  0     0  0
  8 18  2  0     0  0
  9 16  2  0     0  0
  9 19  1  0     0  0
 10 17  1  0     0  0
 10 18  1  0     0  0
 11 21  1  0     0  0
 11 30  1  0     0  0
 12 34  1  0     0  0
 12 35  1  0     0  0
 12 36  1  0     0  0
 13 23  2  0     0  0
 13 24  1  0     0  0
 14 15  1  0     0  0
 14 25  2  0     0  0
 15 26  2  0     0  0
 17 27  1  0     0  0
 18 22  1  0     0  0
 19 22  2  0     0  0
 19 25  1  0     0  0
 20 27  2  0     0  0
 20 37  1  0     0  0
 21 28  2  0     0  0
 21 29  1  0     0  0
 22 26  1  0     0  0
 23 28  1  0     0  0
 24 29  2  0     0  0
 30 37  1  0     0  0
 31 39  1  0     0  0
 32 38  1  0     0  0
 34 39  1  0     0  0
 35 40  1  0     0  0
 36 41  1  0     0  0
 38 40  1  0     0  0
 38 41  1  0     0  0
M  END
> <standard_type>
pIC50

> <# Confs.>
25

> <canonical_smiles>
O=C(CC1=CC(NC2=NC=NC3=C2C=C(OC)C(OCCCN4CCC(CO)CC4)=C3)=NN1)NC5=CC=C(F)C=C5

> <standard_relation>
=

> <Publication_ID>
nan

> <predicted_activity_value>
7.886056647693163

> <actual_activity_value>
7.522878745280337

> <Compound>
28

> <standard_units>
nM

> hash
4878043526410304601

$$$$
28_
XXILIB    08252103423D 0   0.00000     0.00000

 41 45  0     1  0            999 V2000
  -12.9626   -5.8019    3.8863 F   0  0  0  0  0  1           0  0  0
    1.3659    0.0000    0.0000 O   0  0  0  0  0  2           0  0  0
   -0.1962   -0.0175    2.4379 O   0  0  0  0  0  2           0  0  0
  -11.2533    0.0396    1.8717 O   0  0  0  0  0  2           0  0  0
   10.4526   -2.3158   -0.9623 O   0  0  0  0  0  2           0  0  0
   -8.1434    1.3908    0.7353 N   0  0  0  0  0  3           0  0  0
   -7.0026    1.0931    0.0955 N   0  0  0  0  0  3           0  0  0
   -4.7869   -0.0279   -1.5260 N   0  0  0  0  0  3           0  0  0
   -2.6131    0.0479   -2.5368 N   0  0  0  0  0  3           0  0  0
   -5.0558   -0.1440    0.8413 N   0  0  0  0  0  3           0  0  0
  -10.1155   -1.0684    3.5700 N   0  0  0  0  0  3           0  0  0
    5.3609   -2.8086   -0.1017 N   0  0  1  0  0  3           0  0  0
  -12.2804   -4.6512    3.8015 C   0  0  0  0  0  4           0  0  0
    0.0000    0.0000    0.0000 C   0  0  0  0  0  4           0  0  0
   -0.7341    0.0000    1.1817 C   0  0  0  0  0  4           0  0  0
   -3.9535    0.0332   -2.5741 C   0  0  0  0  0  4           0  0  0
   -6.2951    0.3922    0.9947 C   0  0  0  0  0  4           0  0  0
   -4.2166   -0.0931   -0.2975 C   0  0  0  0  0  4           0  0  0
   -2.0464    0.0105   -1.3239 C   0  0  0  0  0  4           0  0  0
   -8.2077    0.9153    2.0139 C   0  0  0  0  0  4           0  0  0
  -10.8641   -2.2591    3.6229 C   0  0  0  0  0  4           0  0  0
   -2.8079   -0.0499   -0.1383 C   0  0  0  0  0  4           0  0  0
  -12.6715   -3.6892    2.8757 C   0  0  0  0  0  4           0  0  0
  -11.1910   -4.4376    4.6391 C   0  0  0  0  0  4           0  0  0
   -0.6578    0.0295   -1.2337 C   0  0  0  0  0  4           0  0  0
   -2.1277   -0.0537    1.1074 C   0  0  0  0  0  4           0  0  0
   -7.0169    0.2531    2.2095 C   0  0  0  0  0  4           0  0  0
  -11.9632   -2.4901    2.7848 C   0  0  0  0  0  4           0  0  0
  -10.4827   -3.2390    4.5499 C   0  0  0  0  0  4           0  0  0
  -10.3578   -0.0079    2.7144 C   0  0  0  0  0  4           0  0  0
    1.9792   -1.1167    0.6447 C   0  0  0  0  0  4           0  0  0
    9.5444   -3.4068   -1.0458 C   0  0  0  0  0  4           0  0  0
    0.0602    1.2637    3.0074 C   0  0  0  0  0  4           0  0  0
    4.0820   -2.5797    0.5764 C   0  0  0  0  0  4           0  0  0
    6.2417   -1.6329   -0.0087 C   0  0  0  0  0  4           0  0  0
    6.0213   -3.9986    0.4573 C   0  0  0  0  0  4           0  0  0
   -9.3801    1.1303    2.8968 C   0  0  0  0  0  4           0  0  0
    8.2845   -3.1139   -0.2411 C   0  0  1  0  0  4           0  0  0
    3.3182   -1.3979   -0.0252 C   0  0  0  0  0  4           0  0  0
    7.5605   -1.8612   -0.7530 C   0  0  0  0  0  4           0  0  0
    7.3273   -4.3081   -0.2759 C   0  0  0  0  0  4           0  0  0
  1 13  1  0     0  0
  2 14  1  0     0  0
  2 31  1  0     0  0
  3 15  1  0     0  0
  3 33  1  0     0  0
  4 30  2  0     0  0
  5 32  1  0     0  0
  6  7  1  0     0  0
  6 20  1  0     0  0
  7 17  2  0     0  0
  8 16  1  0     0  0
  8 18  2  0     0  0
  9 16  2  0     0  0
  9 19  1  0     0  0
 10 17  1  0     0  0
 10 18  1  0     0  0
 11 21  1  0     0  0
 11 30  1  0     0  0
 12 34  1  0     0  0
 12 35  1  0     0  0
 12 36  1  0     0  0
 13 23  2  0     0  0
 13 24  1  0     0  0
 14 15  1  0     0  0
 14 25  2  0     0  0
 15 26  2  0     0  0
 17 27  1  0     0  0
 18 22  1  0     0  0
 19 22  2  0     0  0
 19 25  1  0     0  0
 20 27  2  0     0  0
 20 37  1  0     0  0
 21 28  2  0     0  0
 21 29  1  0     0  0
 22 26  1  0     0  0
 23 28  1  0     0  0
 24 29  2  0     0  0
 30 37  1  0     0  0
 31 39  1  0     0  0
 32 38  1  0     0  0
 34 39  1  0     0  0
 35 40  1  0     0  0
 36 41  1  0     0  0
 38 40  1  0     0  0
 38 41  1  0     0  0
M  END
> <standard_type>
pIC50

> <# Confs.>
25

> <canonical_smiles>
O=C(CC1=CC(NC2=NC=NC3=C2C=C(OC)C(OCCCN4CCC(CO)CC4)=C3)=NN1)NC5=CC=C(F)C=C5

> <standard_relation>
=

> <Publication_ID>
nan

> <predicted_activity_value>
7.886056647693163

> <actual_activity_value>
7.522878745280337

> <Compound>
28

> <standard_units>
nM

> hash
4878043526410304601

$$$$
28_
XXILIB    08252103423D 0   0.00000     0.00000

 41 45  0     1  0            999 V2000
  -13.9164   -5.0853    4.5268 F   0  0  0  0  0  1           0  0  0
    1.3659    0.0000   -0.0000 O   0  0  0  0  0  2           0  0  0
   -0.1962   -0.0175    2.4379 O   0  0  0  0  0  2           0  0  0
  -10.8691   -0.2504    1.6216 O   0  0  0  0  0  2           0  0  0
    1.7326   -8.2920   -1.6308 O   0  0  0  0  0  2           0  0  0
   -8.1434    1.3908    0.7353 N   0  0  0  0  0  3           0  0  0
   -7.0026    1.0931    0.0955 N   0  0  0  0  0  3           0  0  0
   -4.7869   -0.0279   -1.5260 N   0  0  0  0  0  3           0  0  0
   -2.6131    0.0479   -2.5368 N   0  0  0  0  0  3           0  0  0
   -5.0558   -0.1440    0.8413 N   0  0  0  0  0  3           0  0  0
  -10.5808   -0.7186    3.8809 N   0  0  0  0  0  3           0  0  0
    3.3218   -3.8291    0.4825 N   0  0  1  0  0  3           0  0  0
  -13.1118   -4.0265    4.3591 C   0  0  0  0  0  4           0  0  0
    0.0000    0.0000    0.0000 C   0  0  0  0  0  4           0  0  0
   -0.7341    0.0000    1.1817 C   0  0  0  0  0  4           0  0  0
   -3.9535    0.0332   -2.5741 C   0  0  0  0  0  4           0  0  0
   -6.2951    0.3922    0.9947 C   0  0  0  0  0  4           0  0  0
   -4.2166   -0.0931   -0.2975 C   0  0  0  0  0  4           0  0  0
   -2.0464    0.0105   -1.3239 C   0  0  0  0  0  4           0  0  0
   -8.2077    0.9153    2.0139 C   0  0  0  0  0  4           0  0  0
  -11.4400   -1.8261    4.0077 C   0  0  0  0  0  4           0  0  0
   -2.8079   -0.0499   -0.1383 C   0  0  0  0  0  4           0  0  0
  -13.0126   -3.4329    3.1048 C   0  0  0  0  0  4           0  0  0
  -12.3870   -3.5388    5.4411 C   0  0  0  0  0  4           0  0  0
   -0.6578    0.0295   -1.2337 C   0  0  0  0  0  4           0  0  0
   -2.1277   -0.0537    1.1074 C   0  0  0  0  0  4           0  0  0
   -7.0169    0.2531    2.2095 C   0  0  0  0  0  4           0  0  0
  -12.1757   -2.3304    2.9268 C   0  0  0  0  0  4           0  0  0
  -11.5507   -2.4363    5.2648 C   0  0  0  0  0  4           0  0  0
  -10.3578   -0.0079    2.7144 C   0  0  0  0  0  4           0  0  0
    1.9792   -1.1167    0.6447 C   0  0  0  0  0  4           0  0  0
    2.0262   -7.8862   -0.2999 C   0  0  0  0  0  4           0  0  0
    0.0602    1.2637    3.0074 C   0  0  0  0  0  4           0  0  0
    4.0820   -2.5797    0.5764 C   0  0  0  0  0  4           0  0  0
    3.0207   -4.1765   -0.9158 C   0  0  0  0  0  4           0  0  0
    4.0596   -4.9181    1.1416 C   0  0  0  0  0  4           0  0  0
   -9.3801    1.1303    2.8968 C   0  0  0  0  0  4           0  0  0
    2.8907   -6.6319   -0.3039 C   0  0  1  0  0  4           0  0  0
    3.3182   -1.3979   -0.0252 C   0  0  0  0  0  4           0  0  0
    2.1914   -5.4608   -1.0074 C   0  0  0  0  0  4           0  0  0
    3.2620   -6.2230    1.1239 C   0  0  0  0  0  4           0  0  0
  1 13  1  0     0  0
  2 14  1  0     0  0
  2 31  1  0     0  0
  3 15  1  0     0  0
  3 33  1  0     0  0
  4 30  2  0     0  0
  5 32  1  0     0  0
  6  7  1  0     0  0
  6 20  1  0     0  0
  7 17  2  0     0  0
  8 16  1  0     0  0
  8 18  2  0     0  0
  9 16  2  0     0  0
  9 19  1  0     0  0
 10 17  1  0     0  0
 10 18  1  0     0  0
 11 21  1  0     0  0
 11 30  1  0     0  0
 12 34  1  0     0  0
 12 35  1  0     0  0
 12 36  1  0     0  0
 13 23  2  0     0  0
 13 24  1  0     0  0
 14 15  1  0     0  0
 14 25  2  0     0  0
 15 26  2  0     0  0
 17 27  1  0     0  0
 18 22  1  0     0  0
 19 22  2  0     0  0
 19 25  1  0     0  0
 20 27  2  0     0  0
 20 37  1  0     0  0
 21 28  2  0     0  0
 21 29  1  0     0  0
 22 26  1  0     0  0
 23 28  1  0     0  0
 24 29  2  0     0  0
 30 37  1  0     0  0
 31 39  1  0     0  0
 32 38  1  0     0  0
 34 39  1  0     0  0
 35 40  1  0     0  0
 36 41  1  0     0  0
 38 40  1  0     0  0
 38 41  1  0     0  0
M  END
> <standard_type>
pIC50

> <# Confs.>
25

> <canonical_smiles>
O=C(CC1=CC(NC2=NC=NC3=C2C=C(OC)C(OCCCN4CCC(CO)CC4)=C3)=NN1)NC5=CC=C(F)C=C5

> <standard_relation>
=

> <Publication_ID>
nan

> <predicted_activity_value>
7.886056647693163

> <actual_activity_value>
7.522878745280337

> <Compound>
28

> <standard_units>
nM

> hash
4878043526410304601

$$$$
28_
XXILIB    08252103423D 0   0.00000     0.00000

 41 45  0     1  0            999 V2000
  -12.9454    5.2824    4.4321 F   0  0  0  0  0  1           0  0  0
    1.3659   -0.0000    0.0000 O   0  0  0  0  0  2           0  0  0
   -0.1962   -0.0175    2.4379 O   0  0  0  0  0  2           0  0  0
  -11.2620   -0.3328    1.8363 O   0  0  0  0  0  2           0  0  0
    8.9847   -0.8326   -4.5187 O   0  0  0  0  0  2           0  0  0
   -8.1666   -1.6128    0.5838 N   0  0  0  0  0  3           0  0  0
   -7.0189   -1.2740   -0.0225 N   0  0  0  0  0  3           0  0  0
   -4.7869   -0.0279   -1.5260 N   0  0  0  0  0  3           0  0  0
   -2.6131    0.0479   -2.5368 N   0  0  0  0  0  3           0  0  0
   -5.0558   -0.1440    0.8413 N   0  0  0  0  0  3           0  0  0
  -10.1330    0.5821    3.6515 N   0  0  0  0  0  3           0  0  0
    5.5766   -0.5514   -0.6181 N   0  0  1  0  0  3           0  0  0
  -12.2707    4.1413    4.2335 C   0  0  0  0  0  4           0  0  0
   -0.0000    0.0000    0.0000 C   0  0  0  0  0  4           0  0  0
   -0.7341    0.0000    1.1817 C   0  0  0  0  0  4           0  0  0
   -3.9535    0.0332   -2.5741 C   0  0  0  0  0  4           0  0  0
   -6.3025   -0.6758    0.9415 C   0  0  0  0  0  4           0  0  0
   -4.2166   -0.0931   -0.2975 C   0  0  0  0  0  4           0  0  0
   -2.0464    0.0105   -1.3239 C   0  0  0  0  0  4           0  0  0
   -8.2286   -1.2585    1.9012 C   0  0  0  0  0  4           0  0  0
  -10.8705    1.7692    3.8189 C   0  0  0  0  0  4           0  0  0
   -2.8079   -0.0499   -0.1383 C   0  0  0  0  0  4           0  0  0
  -12.6502    3.2919    3.1992 C   0  0  0  0  0  4           0  0  0
  -11.2029    3.8234    5.0657 C   0  0  0  0  0  4           0  0  0
   -0.6578    0.0295   -1.2337 C   0  0  0  0  0  4           0  0  0
   -2.1277   -0.0537    1.1074 C   0  0  0  0  0  4           0  0  0
   -7.0223   -0.6500    2.1652 C   0  0  0  0  0  4           0  0  0
  -11.9498    2.1030    2.9898 C   0  0  0  0  0  4           0  0  0
  -10.5014    2.6357    4.8570 C   0  0  0  0  0  4           0  0  0
  -10.3685   -0.3765    2.6814 C   0  0  0  0  0  4           0  0  0
    1.9792   -1.1167    0.6447 C   0  0  0  0  0  4           0  0  0
    9.1025   -0.5414   -3.1319 C   0  0  0  0  0  4           0  0  0
    0.0602    1.2637    3.0074 C   0  0  0  0  0  4           0  0  0
    4.3065   -0.2313    0.0392 C   0  0  0  0  0  4           0  0  0
    5.3839   -0.8760   -2.0408 C   0  0  0  0  0  4           0  0  0
    6.5198    0.5671   -0.4630 C   0  0  0  0  0  4           0  0  0
   -9.4064   -1.5397    2.7580 C   0  0  0  0  0  4           0  0  0
    7.7517   -0.1356   -2.5561 C   0  0  1  0  0  4           0  0  0
    3.3182   -1.3979   -0.0252 C   0  0  0  0  0  4           0  0  0
    6.7078   -1.2494   -2.7141 C   0  0  0  0  0  4           0  0  0
    7.8813    0.2382   -1.0772 C   0  0  0  0  0  4           0  0  0
  1 13  1  0     0  0
  2 14  1  0     0  0
  2 31  1  0     0  0
  3 15  1  0     0  0
  3 33  1  0     0  0
  4 30  2  0     0  0
  5 32  1  0     0  0
  6  7  1  0     0  0
  6 20  1  0     0  0
  7 17  2  0     0  0
  8 16  1  0     0  0
  8 18  2  0     0  0
  9 16  2  0     0  0
  9 19  1  0     0  0
 10 17  1  0     0  0
 10 18  1  0     0  0
 11 21  1  0     0  0
 11 30  1  0     0  0
 12 34  1  0     0  0
 12 35  1  0     0  0
 12 36  1  0     0  0
 13 23  2  0     0  0
 13 24  1  0     0  0
 14 15  1  0     0  0
 14 25  2  0     0  0
 15 26  2  0     0  0
 17 27  1  0     0  0
 18 22  1  0     0  0
 19 22  2  0     0  0
 19 25  1  0     0  0
 20 27  2  0     0  0
 20 37  1  0     0  0
 21 28  2  0     0  0
 21 29  1  0     0  0
 22 26  1  0     0  0
 23 28  1  0     0  0
 24 29  2  0     0  0
 30 37  1  0     0  0
 31 39  1  0     0  0
 32 38  1  0     0  0
 34 39  1  0     0  0
 35 40  1  0     0  0
 36 41  1  0     0  0
 38 40  1  0     0  0
 38 41  1  0     0  0
M  END
> <standard_type>
pIC50

> <# Confs.>
25

> <canonical_smiles>
O=C(CC1=CC(NC2=NC=NC3=C2C=C(OC)C(OCCCN4CCC(CO)CC4)=C3)=NN1)NC5=CC=C(F)C=C5

> <standard_relation>
=

> <Publication_ID>
nan

> <predicted_activity_value>
7.886056647693163

> <actual_activity_value>
7.522878745280337

> <Compound>
28

> <standard_units>
nM

> hash
4878043526410304601

$$$$
28_
XXILIB    08252103423D 0   0.00000     0.00000

 41 45  0     1  0            999 V2000
   -7.2924    6.0901    8.6336 F   0  0  0  0  0  1           0  0  0
    1.3659    0.0000    0.0000 O   0  0  0  0  0  2           0  0  0
   -0.1962   -0.0175    2.4379 O   0  0  0  0  0  2           0  0  0
   -9.5892    3.4941    3.2402 O   0  0  0  0  0  2           0  0  0
   -0.4865   -8.2329    0.5823 O   0  0  0  0  0  2           0  0  0
   -8.1434    1.3908    0.7353 N   0  0  0  0  0  3           0  0  0
   -7.0026    1.0931    0.0955 N   0  0  0  0  0  3           0  0  0
   -4.7869   -0.0279   -1.5260 N   0  0  0  0  0  3           0  0  0
   -2.6131    0.0479   -2.5368 N   0  0  0  0  0  3           0  0  0
   -5.0558   -0.1440    0.8413 N   0  0  0  0  0  3           0  0  0
   -8.5554    2.2194    4.8872 N   0  0  0  0  0  3           0  0  0
    2.6172   -4.0787    0.7205 N   0  0  1  0  0  3           0  0  0
   -7.6026    5.1607    7.7188 C   0  0  0  0  0  4           0  0  0
    0.0000    0.0000    0.0000 C   0  0  0  0  0  4           0  0  0
   -0.7341    0.0000    1.1817 C   0  0  0  0  0  4           0  0  0
   -3.9535    0.0332   -2.5741 C   0  0  0  0  0  4           0  0  0
   -6.2951    0.3922    0.9947 C   0  0  0  0  0  4           0  0  0
   -4.2166   -0.0931   -0.2975 C   0  0  0  0  0  4           0  0  0
   -2.0464    0.0105   -1.3239 C   0  0  0  0  0  4           0  0  0
   -8.2077    0.9153    2.0139 C   0  0  0  0  0  4           0  0  0
   -8.2486    3.2314    5.8162 C   0  0  0  0  0  4           0  0  0
   -2.8079   -0.0499   -0.1383 C   0  0  0  0  0  4           0  0  0
   -8.2455    5.5418    6.5454 C   0  0  0  0  0  4           0  0  0
   -7.2785    3.8297    7.9577 C   0  0  0  0  0  4           0  0  0
   -0.6578    0.0295   -1.2337 C   0  0  0  0  0  4           0  0  0
   -2.1277   -0.0537    1.1074 C   0  0  0  0  0  4           0  0  0
   -7.0169    0.2531    2.2095 C   0  0  0  0  0  4           0  0  0
   -8.5699    4.5767    5.5910 C   0  0  0  0  0  4           0  0  0
   -7.6014    2.8640    7.0041 C   0  0  0  0  0  4           0  0  0
   -9.1915    2.4132    3.6734 C   0  0  0  0  0  4           0  0  0
    1.9792   -1.1167    0.6447 C   0  0  0  0  0  4           0  0  0
    0.4034   -7.7049    1.5576 C   0  0  0  0  0  4           0  0  0
    0.0602    1.2637    3.0074 C   0  0  0  0  0  4           0  0  0
    3.5593   -3.0844    0.1994 C   0  0  0  0  0  4           0  0  0
    1.7030   -4.5606   -0.3277 C   0  0  0  0  0  4           0  0  0
    3.3523   -5.2005    1.3253 C   0  0  0  0  0  4           0  0  0
   -9.3801    1.1303    2.8968 C   0  0  0  0  0  4           0  0  0
    1.3985   -6.7506    0.9098 C   0  0  1  0  0  4           0  0  0
    2.8417   -1.8581   -0.3689 C   0  0  0  0  0  4           0  0  0
    0.6940   -5.5689    0.2297 C   0  0  0  0  0  4           0  0  0
    2.3986   -6.2244    1.9426 C   0  0  0  0  0  4           0  0  0
  1 13  1  0     0  0
  2 14  1  0     0  0
  2 31  1  0     0  0
  3 15  1  0     0  0
  3 33  1  0     0  0
  4 30  2  0     0  0
  5 32  1  0     0  0
  6  7  1  0     0  0
  6 20  1  0     0  0
  7 17  2  0     0  0
  8 16  1  0     0  0
  8 18  2  0     0  0
  9 16  2  0     0  0
  9 19  1  0     0  0
 10 17  1  0     0  0
 10 18  1  0     0  0
 11 21  1  0     0  0
 11 30  1  0     0  0
 12 34  1  0     0  0
 12 35  1  0     0  0
 12 36  1  0     0  0
 13 23  2  0     0  0
 13 24  1  0     0  0
 14 15  1  0     0  0
 14 25  2  0     0  0
 15 26  2  0     0  0
 17 27  1  0     0  0
 18 22  1  0     0  0
 19 22  2  0     0  0
 19 25  1  0     0  0
 20 27  2  0     0  0
 20 37  1  0     0  0
 21 28  2  0     0  0
 21 29  1  0     0  0
 22 26  1  0     0  0
 23 28  1  0     0  0
 24 29  2  0     0  0
 30 37  1  0     0  0
 31 39  1  0     0  0
 32 38  1  0     0  0
 34 39  1  0     0  0
 35 40  1  0     0  0
 36 41  1  0     0  0
 38 40  1  0     0  0
 38 41  1  0     0  0
M  END
> <standard_type>
pIC50

> <# Confs.>
25

> <canonical_smiles>
O=C(CC1=CC(NC2=NC=NC3=C2C=C(OC)C(OCCCN4CCC(CO)CC4)=C3)=NN1)NC5=CC=C(F)C=C5

> <standard_relation>
=

> <Publication_ID>
nan

> <predicted_activity_value>
7.886056647693163

> <actual_activity_value>
7.522878745280337

> <Compound>
28

> <standard_units>
nM

> hash
4878043526410304601

$$$$
28_
XXILIB    08252103423D 0   0.00000     0.00000

 41 45  0     1  0            999 V2000
   -7.3379   -7.0509    7.9749 F   0  0  0  0  0  1           0  0  0
    1.3659    0.0000    0.0000 O   0  0  0  0  0  2           0  0  0
   -0.1962   -0.0175    2.4379 O   0  0  0  0  0  2           0  0  0
   -9.6473   -3.9223    2.8777 O   0  0  0  0  0  2           0  0  0
   10.4526   -2.3158   -0.9623 O   0  0  0  0  0  2           0  0  0
   -8.1666   -1.6128    0.5838 N   0  0  0  0  0  3           0  0  0
   -7.0189   -1.2740   -0.0225 N   0  0  0  0  0  3           0  0  0
   -4.7869   -0.0279   -1.5260 N   0  0  0  0  0  3           0  0  0
   -2.6131    0.0479   -2.5368 N   0  0  0  0  0  3           0  0  0
   -5.0558   -0.1440    0.8413 N   0  0  0  0  0  3           0  0  0
   -8.5763   -2.8248    4.6256 N   0  0  0  0  0  3           0  0  0
    5.3609   -2.8086   -0.1017 N   0  0  1  0  0  3           0  0  0
   -7.6435   -6.0345    7.1563 C   0  0  0  0  0  4           0  0  0
   -0.0000    0.0000    0.0000 C   0  0  0  0  0  4           0  0  0
   -0.7341    0.0000    1.1817 C   0  0  0  0  0  4           0  0  0
   -3.9535    0.0332   -2.5741 C   0  0  0  0  0  4           0  0  0
   -6.3025   -0.6758    0.9415 C   0  0  0  0  0  4           0  0  0
   -4.2166   -0.0931   -0.2975 C   0  0  0  0  0  4           0  0  0
   -2.0464    0.0105   -1.3239 C   0  0  0  0  0  4           0  0  0
   -8.2286   -1.2585    1.9012 C   0  0  0  0  0  4           0  0  0
   -8.2795   -3.9241    5.4529 C   0  0  0  0  0  4           0  0  0
   -2.8079   -0.0499   -0.1383 C   0  0  0  0  0  4           0  0  0
   -8.3181   -6.2914    5.9670 C   0  0  0  0  0  4           0  0  0
   -7.2798   -4.7390    7.5075 C   0  0  0  0  0  4           0  0  0
   -0.6578    0.0295   -1.2337 C   0  0  0  0  0  4           0  0  0
   -2.1277   -0.0537    1.1074 C   0  0  0  0  0  4           0  0  0
   -7.0223   -0.6500    2.1652 C   0  0  0  0  0  4           0  0  0
   -8.6377   -5.2354    5.1123 C   0  0  0  0  0  4           0  0  0
   -7.5994   -3.6824    6.6545 C   0  0  0  0  0  4           0  0  0
   -9.2369   -2.8922    3.4112 C   0  0  0  0  0  4           0  0  0
    1.9792   -1.1167    0.6447 C   0  0  0  0  0  4           0  0  0
    9.5444   -3.4068   -1.0458 C   0  0  0  0  0  4           0  0  0
    0.0602    1.2637    3.0074 C   0  0  0  0  0  4           0  0  0
    4.0820   -2.5797    0.5764 C   0  0  0  0  0  4           0  0  0
    6.2417   -1.6329   -0.0087 C   0  0  0  0  0  4           0  0  0
    6.0213   -3.9986    0.4573 C   0  0  0  0  0  4           0  0  0
   -9.4064   -1.5397    2.7580 C   0  0  0  0  0  4           0  0  0
    8.2845   -3.1139   -0.2411 C   0  0  1  0  0  4           0  0  0
    3.3182   -1.3979   -0.0252 C   0  0  0  0  0  4           0  0  0
    7.5605   -1.8612   -0.7530 C   0  0  0  0  0  4           0  0  0
    7.3273   -4.3081   -0.2759 C   0  0  0  0  0  4           0  0  0
  1 13  1  0     0  0
  2 14  1  0     0  0
  2 31  1  0     0  0
  3 15  1  0     0  0
  3 33  1  0     0  0
  4 30  2  0     0  0
  5 32  1  0     0  0
  6  7  1  0     0  0
  6 20  1  0     0  0
  7 17  2  0     0  0
  8 16  1  0     0  0
  8 18  2  0     0  0
  9 16  2  0     0  0
  9 19  1  0     0  0
 10 17  1  0     0  0
 10 18  1  0     0  0
 11 21  1  0     0  0
 11 30  1  0     0  0
 12 34  1  0     0  0
 12 35  1  0     0  0
 12 36  1  0     0  0
 13 23  2  0     0  0
 13 24  1  0     0  0
 14 15  1  0     0  0
 14 25  2  0     0  0
 15 26  2  0     0  0
 17 27  1  0     0  0
 18 22  1  0     0  0
 19 22  2  0     0  0
 19 25  1  0     0  0
 20 27  2  0     0  0
 20 37  1  0     0  0
 21 28  2  0     0  0
 21 29  1  0     0  0
 22 26  1  0     0  0
 23 28  1  0     0  0
 24 29  2  0     0  0
 30 37  1  0     0  0
 31 39  1  0     0  0
 32 38  1  0     0  0
 34 39  1  0     0  0
 35 40  1  0     0  0
 36 41  1  0     0  0
 38 40  1  0     0  0
 38 41  1  0     0  0
M  END
> <standard_type>
pIC50

> <# Confs.>
25

> <canonical_smiles>
O=C(CC1=CC(NC2=NC=NC3=C2C=C(OC)C(OCCCN4CCC(CO)CC4)=C3)=NN1)NC5=CC=C(F)C=C5

> <standard_relation>
=

> <Publication_ID>
nan

> <predicted_activity_value>
7.886056647693163

> <actual_activity_value>
7.522878745280337

> <Compound>
28

> <standard_units>
nM

> hash
4878043526410304601

$$$$
28_
XXILIB    08252103423D 0   0.00000     0.00000

 41 45  0     1  0            999 V2000
   -7.2924    6.0901    8.6336 F   0  0  0  0  0  1           0  0  0
    1.3659   -0.0000    0.0000 O   0  0  0  0  0  2           0  0  0
   -0.1962   -0.0175    2.4379 O   0  0  0  0  0  2           0  0  0
   -9.5892    3.4941    3.2402 O   0  0  0  0  0  2           0  0  0
   10.0273    1.7721   -0.9989 O   0  0  0  0  0  2           0  0  0
   -8.1434    1.3908    0.7353 N   0  0  0  0  0  3           0  0  0
   -7.0026    1.0931    0.0955 N   0  0  0  0  0  3           0  0  0
   -4.7869   -0.0279   -1.5260 N   0  0  0  0  0  3           0  0  0
   -2.6131    0.0479   -2.5368 N   0  0  0  0  0  3           0  0  0
   -5.0558   -0.1440    0.8413 N   0  0  0  0  0  3           0  0  0
   -8.5554    2.2194    4.8872 N   0  0  0  0  0  3           0  0  0
    5.4915    0.4004    1.1115 N   0  0  1  0  0  3           0  0  0
   -7.6026    5.1607    7.7188 C   0  0  0  0  0  4           0  0  0
    0.0000    0.0000    0.0000 C   0  0  0  0  0  4           0  0  0
   -0.7341    0.0000    1.1817 C   0  0  0  0  0  4           0  0  0
   -3.9535    0.0332   -2.5741 C   0  0  0  0  0  4           0  0  0
   -6.2951    0.3922    0.9947 C   0  0  0  0  0  4           0  0  0
   -4.2166   -0.0931   -0.2975 C   0  0  0  0  0  4           0  0  0
   -2.0464    0.0105   -1.3239 C   0  0  0  0  0  4           0  0  0
   -8.2077    0.9153    2.0139 C   0  0  0  0  0  4           0  0  0
   -8.2486    3.2314    5.8162 C   0  0  0  0  0  4           0  0  0
   -2.8079   -0.0499   -0.1383 C   0  0  0  0  0  4           0  0  0
   -8.2455    5.5418    6.5454 C   0  0  0  0  0  4           0  0  0
   -7.2785    3.8297    7.9577 C   0  0  0  0  0  4           0  0  0
   -0.6578    0.0295   -1.2337 C   0  0  0  0  0  4           0  0  0
   -2.1277   -0.0537    1.1074 C   0  0  0  0  0  4           0  0  0
   -7.0169    0.2531    2.2095 C   0  0  0  0  0  4           0  0  0
   -8.5699    4.5767    5.5910 C   0  0  0  0  0  4           0  0  0
   -7.6014    2.8640    7.0041 C   0  0  0  0  0  4           0  0  0
   -9.1915    2.4132    3.6734 C   0  0  0  0  0  4           0  0  0
    1.9792   -1.1167    0.6447 C   0  0  0  0  0  4           0  0  0
    9.5471    1.7060    0.3379 C   0  0  0  0  0  4           0  0  0
    0.0602    1.2637    3.0074 C   0  0  0  0  0  4           0  0  0
    4.0335    0.3020    1.2225 C   0  0  0  0  0  4           0  0  0
    5.9271    0.4307   -0.2942 C   0  0  0  0  0  4           0  0  0
    5.9721    1.5906    1.8306 C   0  0  0  0  0  4           0  0  0
   -9.3801    1.1303    2.8968 C   0  0  0  0  0  4           0  0  0
    8.0239    1.6957    0.3568 C   0  0  1  0  0  4           0  0  0
    3.4927   -0.9657    0.5575 C   0  0  0  0  0  4           0  0  0
    7.4533    0.4925   -0.4061 C   0  0  0  0  0  4           0  0  0
    7.4981    1.6858    1.7946 C   0  0  0  0  0  4           0  0  0
  1 13  1  0     0  0
  2 14  1  0     0  0
  2 31  1  0     0  0
  3 15  1  0     0  0
  3 33  1  0     0  0
  4 30  2  0     0  0
  5 32  1  0     0  0
  6  7  1  0     0  0
  6 20  1  0     0  0
  7 17  2  0     0  0
  8 16  1  0     0  0
  8 18  2  0     0  0
  9 16  2  0     0  0
  9 19  1  0     0  0
 10 17  1  0     0  0
 10 18  1  0     0  0
 11 21  1  0     0  0
 11 30  1  0     0  0
 12 34  1  0     0  0
 12 35  1  0     0  0
 12 36  1  0     0  0
 13 23  2  0     0  0
 13 24  1  0     0  0
 14 15  1  0     0  0
 14 25  2  0     0  0
 15 26  2  0     0  0
 17 27  1  0     0  0
 18 22  1  0     0  0
 19 22  2  0     0  0
 19 25  1  0     0  0
 20 27  2  0     0  0
 20 37  1  0     0  0
 21 28  2  0     0  0
 21 29  1  0     0  0
 22 26  1  0     0  0
 23 28  1  0     0  0
 24 29  2  0     0  0
 30 37  1  0     0  0
 31 39  1  0     0  0
 32 38  1  0     0  0
 34 39  1  0     0  0
 35 40  1  0     0  0
 36 41  1  0     0  0
 38 40  1  0     0  0
 38 41  1  0     0  0
M  END
> <standard_type>
pIC50

> <# Confs.>
25

> <canonical_smiles>
O=C(CC1=CC(NC2=NC=NC3=C2C=C(OC)C(OCCCN4CCC(CO)CC4)=C3)=NN1)NC5=CC=C(F)C=C5

> <standard_relation>
=

> <Publication_ID>
nan

> <predicted_activity_value>
7.886056647693163

> <actual_activity_value>
7.522878745280337

> <Compound>
28

> <standard_units>
nM

> hash
4878043526410304601

$$$$
28_
XXILIB    08252103423D 0   0.00000     0.00000

 41 45  0     1  0            999 V2000
   -7.3379   -7.0509    7.9749 F   0  0  0  0  0  1           0  0  0
    1.3659   -0.0000   -0.0000 O   0  0  0  0  0  2           0  0  0
   -0.1962   -0.0175    2.4379 O   0  0  0  0  0  2           0  0  0
   -9.6473   -3.9223    2.8777 O   0  0  0  0  0  2           0  0  0
    4.5330    1.3519    7.7261 O   0  0  0  0  0  2           0  0  0
   -8.1666   -1.6128    0.5838 N   0  0  0  0  0  3           0  0  0
   -7.0189   -1.2740   -0.0225 N   0  0  0  0  0  3           0  0  0
   -4.7869   -0.0279   -1.5260 N   0  0  0  0  0  3           0  0  0
   -2.6131    0.0479   -2.5368 N   0  0  0  0  0  3           0  0  0
   -5.0558   -0.1440    0.8413 N   0  0  0  0  0  3           0  0  0
   -8.5763   -2.8248    4.6256 N   0  0  0  0  0  3           0  0  0
    3.9688    2.2259    2.6441 N   0  0  1  0  0  3           0  0  0
   -7.6435   -6.0345    7.1563 C   0  0  0  0  0  4           0  0  0
   -0.0000    0.0000    0.0000 C   0  0  0  0  0  4           0  0  0
   -0.7341    0.0000    1.1817 C   0  0  0  0  0  4           0  0  0
   -3.9535    0.0332   -2.5741 C   0  0  0  0  0  4           0  0  0
   -6.3025   -0.6758    0.9415 C   0  0  0  0  0  4           0  0  0
   -4.2166   -0.0931   -0.2975 C   0  0  0  0  0  4           0  0  0
   -2.0464    0.0105   -1.3239 C   0  0  0  0  0  4           0  0  0
   -8.2286   -1.2585    1.9012 C   0  0  0  0  0  4           0  0  0
   -8.2795   -3.9241    5.4529 C   0  0  0  0  0  4           0  0  0
   -2.8079   -0.0499   -0.1383 C   0  0  0  0  0  4           0  0  0
   -8.3181   -6.2914    5.9670 C   0  0  0  0  0  4           0  0  0
   -7.2798   -4.7390    7.5075 C   0  0  0  0  0  4           0  0  0
   -0.6578    0.0295   -1.2337 C   0  0  0  0  0  4           0  0  0
   -2.1277   -0.0537    1.1074 C   0  0  0  0  0  4           0  0  0
   -7.0223   -0.6500    2.1652 C   0  0  0  0  0  4           0  0  0
   -8.6377   -5.2354    5.1123 C   0  0  0  0  0  4           0  0  0
   -7.5994   -3.6824    6.6545 C   0  0  0  0  0  4           0  0  0
   -9.2369   -2.8922    3.4112 C   0  0  0  0  0  4           0  0  0
    1.9792    1.1167    0.6447 C   0  0  0  0  0  4           0  0  0
    4.1989    2.5019    6.9594 C   0  0  0  0  0  4           0  0  0
    0.0261   -1.3142    2.9862 C   0  0  0  0  0  4           0  0  0
    4.2734    2.1056    1.2156 C   0  0  0  0  0  4           0  0  0
    4.3051    0.9936    3.3756 C   0  0  0  0  0  4           0  0  0
    4.6802    3.3801    3.2152 C   0  0  0  0  0  4           0  0  0
   -9.4064   -1.5397    2.7580 C   0  0  0  0  0  4           0  0  0
    4.6308    2.3197    5.5099 C   0  0  1  0  0  4           0  0  0
    3.4927    0.9657    0.5575 C   0  0  0  0  0  4           0  0  0
    3.9476    1.1087    4.8603 C   0  0  0  0  0  4           0  0  0
    4.3295    3.5774    4.6907 C   0  0  0  0  0  4           0  0  0
  1 13  1  0     0  0
  2 14  1  0     0  0
  2 31  1  0     0  0
  3 15  1  0     0  0
  3 33  1  0     0  0
  4 30  2  0     0  0
  5 32  1  0     0  0
  6  7  1  0     0  0
  6 20  1  0     0  0
  7 17  2  0     0  0
  8 16  1  0     0  0
  8 18  2  0     0  0
  9 16  2  0     0  0
  9 19  1  0     0  0
 10 17  1  0     0  0
 10 18  1  0     0  0
 11 21  1  0     0  0
 11 30  1  0     0  0
 12 34  1  0     0  0
 12 35  1  0     0  0
 12 36  1  0     0  0
 13 23  2  0     0  0
 13 24  1  0     0  0
 14 15  1  0     0  0
 14 25  2  0     0  0
 15 26  2  0     0  0
 17 27  1  0     0  0
 18 22  1  0     0  0
 19 22  2  0     0  0
 19 25  1  0     0  0
 20 27  2  0     0  0
 20 37  1  0     0  0
 21 28  2  0     0  0
 21 29  1  0     0  0
 22 26  1  0     0  0
 23 28  1  0     0  0
 24 29  2  0     0  0
 30 37  1  0     0  0
 31 39  1  0     0  0
 32 38  1  0     0  0
 34 39  1  0     0  0
 35 40  1  0     0  0
 36 41  1  0     0  0
 38 40  1  0     0  0
 38 41  1  0     0  0
M  END
> <standard_type>
pIC50

> <# Confs.>
25

> <canonical_smiles>
O=C(CC1=CC(NC2=NC=NC3=C2C=C(OC)C(OCCCN4CCC(CO)CC4)=C3)=NN1)NC5=CC=C(F)C=C5

> <standard_relation>
=

> <Publication_ID>
nan

> <predicted_activity_value>
7.886056647693163

> <actual_activity_value>
7.522878745280337

> <Compound>
28

> <standard_units>
nM

> hash
4878043526410304601

$$$$
32_
XXILIB    08252103423D 0   0.00000     0.00000

 38 42  0     1  0            999 V2000
   -7.1709   -0.6101    2.3092 S   0  0  0  0  0  2           0  0  0
  -13.5277   -1.8779    7.5938 F   0  0  0  0  0  1           0  0  0
    1.3663   -0.0000   -0.0000 O   0  0  0  0  0  2           0  0  0
   -0.0427    0.0142    2.3509 O   0  0  0  0  0  2           0  0  0
  -10.5139   -2.6230    1.8491 O   0  0  0  0  0  2           0  0  0
    3.3822    6.6470   -0.1889 O   0  0  0  0  0  2           0  0  0
   -6.8498   -1.4316   -0.1037 N   0  0  0  0  0  3           0  0  0
   -4.7528   -0.1996   -1.6014 N   0  0  0  0  0  3           0  0  0
   -2.5632   -0.1768   -2.5760 N   0  0  0  0  0  3           0  0  0
   -5.0591   -0.1069    0.7620 N   0  0  0  0  0  3           0  0  0
   -9.6816   -1.4310    3.6396 N   0  0  0  0  0  3           0  0  0
    3.4641    3.8864    0.5238 N   0  0  2  0  0  3           0  0  0
   -6.2616   -0.7242    0.8418 C   0  0  0  0  0  4           0  0  0
   -8.4169   -1.5692    1.6324 C   0  0  0  0  0  4           0  0  0
  -12.6005   -1.7804    6.6306 C   0  0  0  0  0  4           0  0  0
    0.0000    0.0000    0.0000 C   0  0  0  0  0  4           0  0  0
   -0.7452    0.0000    1.1789 C   0  0  0  0  0  4           0  0  0
   -3.9016   -0.2203   -2.6359 C   0  0  0  0  0  4           0  0  0
   -4.2071   -0.1105   -0.3625 C   0  0  0  0  0  4           0  0  0
   -2.0196   -0.1116   -1.3537 C   0  0  0  0  0  4           0  0  0
   -8.0660   -1.9082    0.3415 C   0  0  0  0  0  4           0  0  0
  -10.6805   -1.5708    4.6243 C   0  0  0  0  0  4           0  0  0
   -2.7997   -0.0822   -0.1800 C   0  0  0  0  0  4           0  0  0
  -11.4398   -1.0524    6.8683 C   0  0  0  0  0  4           0  0  0
  -12.8153   -2.4074    5.4075 C   0  0  0  0  0  4           0  0  0
   -0.6347   -0.0770   -1.2425 C   0  0  0  0  0  4           0  0  0
   -2.1400   -0.0375    1.0797 C   0  0  0  0  0  4           0  0  0
  -10.4772   -0.9493    5.8637 C   0  0  0  0  0  4           0  0  0
  -11.8548   -2.3020    4.4003 C   0  0  0  0  0  4           0  0  0
   -9.6229   -1.9325    2.3444 C   0  0  0  0  0  4           0  0  0
    1.9789    1.1168    0.6448 C   0  0  0  0  0  4           0  0  0
    2.5209    5.7068   -0.8315 C   0  0  0  0  0  4           0  0  0
    3.6496    6.2488    1.1555 C   0  0  0  0  0  4           0  0  0
   -0.8352    0.0137    3.5353 C   0  0  0  0  0  4           0  0  0
    3.1613    4.3206   -0.8505 C   0  0  0  0  0  4           0  0  0
    4.3288    4.8830    1.1757 C   0  0  0  0  0  4           0  0  0
    4.0953    2.5652    0.5521 C   0  0  0  0  0  4           0  0  0
    3.3135    1.3830   -0.0367 C   0  0  0  0  0  4           0  0  0
  1 13  1  0     0  0
  1 14  1  0     0  0
  2 15  1  0     0  0
  3 16  1  0     0  0
  3 31  1  0     0  0
  4 17  1  0     0  0
  4 34  1  0     0  0
  5 30  2  0     0  0
  6 32  1  0     0  0
  6 33  1  0     0  0
  7 13  2  0     0  0
  7 21  1  0     0  0
  8 18  1  0     0  0
  8 19  2  0     0  0
  9 18  2  0     0  0
  9 20  1  0     0  0
 10 13  1  0     0  0
 10 19  1  0     0  0
 11 22  1  0     0  0
 11 30  1  0     0  0
 12 35  1  0     0  0
 12 36  1  0     0  0
 12 37  1  0     0  0
 14 21  2  0     0  0
 14 30  1  0     0  0
 15 24  1  0     0  0
 15 25  2  0     0  0
 16 17  1  0     0  0
 16 26  2  0     0  0
 17 27  2  0     0  0
 19 23  1  0     0  0
 20 23  2  0     0  0
 20 26  1  0     0  0
 22 28  1  0     0  0
 22 29  2  0     0  0
 23 27  1  0     0  0
 24 28  2  0     0  0
 25 29  1  0     0  0
 31 38  1  0     0  0
 32 35  1  0     0  0
 33 36  1  0     0  0
 37 38  1  0     0  0
M  END
> <standard_type>
pIC50

> <# Confs.>
25

> <canonical_smiles>
FC(C=C1)=CC=C1NC(C(S2)=CN=C2NC3=NC=NC4=C3C=C(OC)C(OCCCN5CCOCC5)=C4)=O

> <standard_relation>
=

> <Publication_ID>
nan

> <predicted_activity_value>
7.00436480540245

> <actual_activity_value>
7.309803919971486

> <Compound>
32

> <standard_units>
nM

> hash
1274051342031181450

$$$$
32_
XXILIB    08252103423D 0   0.00000     0.00000

 38 42  0     1  0            999 V2000
   -6.9780    0.6485    2.4513 S   0  0  0  0  0  2           0  0  0
  -12.8617    2.5447    8.0842 F   0  0  0  0  0  1           0  0  0
    1.3663   -0.0000   -0.0000 O   0  0  0  0  0  2           0  0  0
   -0.0427    0.0142    2.3509 O   0  0  0  0  0  2           0  0  0
   -9.5758    3.5951    2.5399 O   0  0  0  0  0  2           0  0  0
    3.3822    6.6470   -0.1889 O   0  0  0  0  0  2           0  0  0
   -6.3470    1.8442    0.2668 N   0  0  0  0  0  3           0  0  0
   -4.7528   -0.1996   -1.6014 N   0  0  0  0  0  3           0  0  0
   -2.5632   -0.1768   -2.5760 N   0  0  0  0  0  3           0  0  0
   -5.0591   -0.1069    0.7620 N   0  0  0  0  0  3           0  0  0
   -9.1904    1.8529    4.0012 N   0  0  0  0  0  3           0  0  0
    3.4641    3.8864    0.5238 N   0  0  2  0  0  3           0  0  0
   -6.0272    0.8054    1.0145 C   0  0  0  0  0  4           0  0  0
   -7.8680    2.0509    2.0367 C   0  0  0  0  0  4           0  0  0
  -11.9800    2.3839    7.0874 C   0  0  0  0  0  4           0  0  0
    0.0000    0.0000    0.0000 C   0  0  0  0  0  4           0  0  0
   -0.7452    0.0000    1.1789 C   0  0  0  0  0  4           0  0  0
   -3.9016   -0.2203   -2.6359 C   0  0  0  0  0  4           0  0  0
   -4.2071   -0.1105   -0.3625 C   0  0  0  0  0  4           0  0  0
   -2.0196   -0.1116   -1.3537 C   0  0  0  0  0  4           0  0  0
   -7.3851    2.5475    0.8431 C   0  0  0  0  0  4           0  0  0
  -10.1424    2.0580    5.0204 C   0  0  0  0  0  4           0  0  0
   -2.7997   -0.0822   -0.1800 C   0  0  0  0  0  4           0  0  0
  -11.0926    1.3139    7.1237 C   0  0  0  0  0  4           0  0  0
  -11.9654    3.2915    6.0333 C   0  0  0  0  0  4           0  0  0
   -0.6347   -0.0770   -1.2425 C   0  0  0  0  0  4           0  0  0
   -2.1400   -0.0375    1.0797 C   0  0  0  0  0  4           0  0  0
  -10.1735    1.1497    6.0871 C   0  0  0  0  0  4           0  0  0
  -11.0439    3.1306    4.9973 C   0  0  0  0  0  4           0  0  0
   -8.9412    2.5855    2.8464 C   0  0  0  0  0  4           0  0  0
    1.9789    1.1168    0.6448 C   0  0  0  0  0  4           0  0  0
    2.5209    5.7068   -0.8315 C   0  0  0  0  0  4           0  0  0
    3.6496    6.2488    1.1555 C   0  0  0  0  0  4           0  0  0
   -0.8352    0.0137    3.5353 C   0  0  0  0  0  4           0  0  0
    3.1613    4.3206   -0.8505 C   0  0  0  0  0  4           0  0  0
    4.3288    4.8830    1.1757 C   0  0  0  0  0  4           0  0  0
    4.0953    2.5652    0.5521 C   0  0  0  0  0  4           0  0  0
    3.3135    1.3830   -0.0367 C   0  0  0  0  0  4           0  0  0
  1 13  1  0     0  0
  1 14  1  0     0  0
  2 15  1  0     0  0
  3 16  1  0     0  0
  3 31  1  0     0  0
  4 17  1  0     0  0
  4 34  1  0     0  0
  5 30  2  0     0  0
  6 32  1  0     0  0
  6 33  1  0     0  0
  7 13  2  0     0  0
  7 21  1  0     0  0
  8 18  1  0     0  0
  8 19  2  0     0  0
  9 18  2  0     0  0
  9 20  1  0     0  0
 10 13  1  0     0  0
 10 19  1  0     0  0
 11 22  1  0     0  0
 11 30  1  0     0  0
 12 35  1  0     0  0
 12 36  1  0     0  0
 12 37  1  0     0  0
 14 21  2  0     0  0
 14 30  1  0     0  0
 15 24  1  0     0  0
 15 25  2  0     0  0
 16 17  1  0     0  0
 16 26  2  0     0  0
 17 27  2  0     0  0
 19 23  1  0     0  0
 20 23  2  0     0  0
 20 26  1  0     0  0
 22 28  1  0     0  0
 22 29  2  0     0  0
 23 27  1  0     0  0
 24 28  2  0     0  0
 25 29  1  0     0  0
 31 38  1  0     0  0
 32 35  1  0     0  0
 33 36  1  0     0  0
 37 38  1  0     0  0
M  END
> <standard_type>
pIC50

> <# Confs.>
25

> <canonical_smiles>
FC(C=C1)=CC=C1NC(C(S2)=CN=C2NC3=NC=NC4=C3C=C(OC)C(OCCCN5CCOCC5)=C4)=O

> <standard_relation>
=

> <Publication_ID>
nan

> <predicted_activity_value>
7.00436480540245

> <actual_activity_value>
7.309803919971486

> <Compound>
32

> <standard_units>
nM

> hash
1274051342031181450

$$$$
32_
XXILIB    08252103423D 0   0.00000     0.00000

 38 42  0     1  0            999 V2000
   -7.1709   -0.6101    2.3092 S   0  0  0  0  0  2           0  0  0
  -13.5277   -1.8779    7.5938 F   0  0  0  0  0  1           0  0  0
    1.3663   -0.0000   -0.0000 O   0  0  0  0  0  2           0  0  0
   -0.0427    0.0142    2.3509 O   0  0  0  0  0  2           0  0  0
  -10.5139   -2.6230    1.8491 O   0  0  0  0  0  2           0  0  0
    6.3849   -2.5329    4.0842 O   0  0  0  0  0  2           0  0  0
   -6.8498   -1.4316   -0.1037 N   0  0  0  0  0  3           0  0  0
   -4.7528   -0.1996   -1.6014 N   0  0  0  0  0  3           0  0  0
   -2.5632   -0.1768   -2.5760 N   0  0  0  0  0  3           0  0  0
   -5.0591   -0.1069    0.7620 N   0  0  0  0  0  3           0  0  0
   -9.6816   -1.4310    3.6396 N   0  0  0  0  0  3           0  0  0
    4.4765   -2.4992    1.9646 N   0  0  2  0  0  3           0  0  0
   -6.2616   -0.7242    0.8418 C   0  0  0  0  0  4           0  0  0
   -8.4169   -1.5692    1.6324 C   0  0  0  0  0  4           0  0  0
  -12.6005   -1.7804    6.6306 C   0  0  0  0  0  4           0  0  0
    0.0000    0.0000    0.0000 C   0  0  0  0  0  4           0  0  0
   -0.7452    0.0000    1.1789 C   0  0  0  0  0  4           0  0  0
   -3.9016   -0.2203   -2.6359 C   0  0  0  0  0  4           0  0  0
   -4.2071   -0.1105   -0.3625 C   0  0  0  0  0  4           0  0  0
   -2.0196   -0.1116   -1.3537 C   0  0  0  0  0  4           0  0  0
   -8.0660   -1.9082    0.3415 C   0  0  0  0  0  4           0  0  0
  -10.6805   -1.5708    4.6243 C   0  0  0  0  0  4           0  0  0
   -2.7997   -0.0822   -0.1800 C   0  0  0  0  0  4           0  0  0
  -11.4398   -1.0524    6.8683 C   0  0  0  0  0  4           0  0  0
  -12.8153   -2.4074    5.4075 C   0  0  0  0  0  4           0  0  0
   -0.6347   -0.0770   -1.2425 C   0  0  0  0  0  4           0  0  0
   -2.1400   -0.0375    1.0797 C   0  0  0  0  0  4           0  0  0
  -10.4772   -0.9493    5.8637 C   0  0  0  0  0  4           0  0  0
  -11.8548   -2.3020    4.4003 C   0  0  0  0  0  4           0  0  0
   -9.6229   -1.9325    2.3444 C   0  0  0  0  0  4           0  0  0
    1.9789   -1.1168    0.6448 C   0  0  0  0  0  4           0  0  0
    5.7225   -1.3202    3.7246 C   0  0  0  0  0  4           0  0  0
    5.5401   -3.6586    3.8459 C   0  0  0  0  0  4           0  0  0
   -0.8352    0.0137    3.5353 C   0  0  0  0  0  4           0  0  0
    5.3379   -1.3384    2.2470 C   0  0  0  0  0  4           0  0  0
    5.1671   -3.7344    2.3687 C   0  0  0  0  0  4           0  0  0
    4.0953   -2.5652    0.5521 C   0  0  0  0  0  4           0  0  0
    3.3135   -1.3830   -0.0367 C   0  0  0  0  0  4           0  0  0
  1 13  1  0     0  0
  1 14  1  0     0  0
  2 15  1  0     0  0
  3 16  1  0     0  0
  3 31  1  0     0  0
  4 17  1  0     0  0
  4 34  1  0     0  0
  5 30  2  0     0  0
  6 32  1  0     0  0
  6 33  1  0     0  0
  7 13  2  0     0  0
  7 21  1  0     0  0
  8 18  1  0     0  0
  8 19  2  0     0  0
  9 18  2  0     0  0
  9 20  1  0     0  0
 10 13  1  0     0  0
 10 19  1  0     0  0
 11 22  1  0     0  0
 11 30  1  0     0  0
 12 35  1  0     0  0
 12 36  1  0     0  0
 12 37  1  0     0  0
 14 21  2  0     0  0
 14 30  1  0     0  0
 15 24  1  0     0  0
 15 25  2  0     0  0
 16 17  1  0     0  0
 16 26  2  0     0  0
 17 27  2  0     0  0
 19 23  1  0     0  0
 20 23  2  0     0  0
 20 26  1  0     0  0
 22 28  1  0     0  0
 22 29  2  0     0  0
 23 27  1  0     0  0
 24 28  2  0     0  0
 25 29  1  0     0  0
 31 38  1  0     0  0
 32 35  1  0     0  0
 33 36  1  0     0  0
 37 38  1  0     0  0
M  END
> <standard_type>
pIC50

> <# Confs.>
25

> <canonical_smiles>
FC(C=C1)=CC=C1NC(C(S2)=CN=C2NC3=NC=NC4=C3C=C(OC)C(OCCCN5CCOCC5)=C4)=O

> <standard_relation>
=

> <Publication_ID>
nan

> <predicted_activity_value>
7.00436480540245

> <actual_activity_value>
7.309803919971486

> <Compound>
32

> <standard_units>
nM

> hash
1274051342031181450

$$$$
32_
XXILIB    08252103423D 0   0.00000     0.00000

 38 42  0     1  0            999 V2000
   -7.1709   -0.6101    2.3092 S   0  0  0  0  0  2           0  0  0
  -13.5277   -1.8779    7.5938 F   0  0  0  0  0  1           0  0  0
    1.3663   -0.0000   -0.0000 O   0  0  0  0  0  2           0  0  0
   -0.0427    0.0142    2.3509 O   0  0  0  0  0  2           0  0  0
  -10.5139   -2.6230    1.8491 O   0  0  0  0  0  2           0  0  0
    6.3914    2.4031    4.0764 O   0  0  0  0  0  2           0  0  0
   -6.8498   -1.4316   -0.1037 N   0  0  0  0  0  3           0  0  0
   -4.7528   -0.1996   -1.6014 N   0  0  0  0  0  3           0  0  0
   -2.5632   -0.1768   -2.5760 N   0  0  0  0  0  3           0  0  0
   -5.0591   -0.1069    0.7620 N   0  0  0  0  0  3           0  0  0
   -9.6816   -1.4310    3.6396 N   0  0  0  0  0  3           0  0  0
    4.4765    2.4992    1.9646 N   0  0  2  0  0  3           0  0  0
   -6.2616   -0.7242    0.8418 C   0  0  0  0  0  4           0  0  0
   -8.4169   -1.5692    1.6324 C   0  0  0  0  0  4           0  0  0
  -12.6005   -1.7804    6.6306 C   0  0  0  0  0  4           0  0  0
    0.0000    0.0000    0.0000 C   0  0  0  0  0  4           0  0  0
   -0.7452    0.0000    1.1789 C   0  0  0  0  0  4           0  0  0
   -3.9016   -0.2203   -2.6359 C   0  0  0  0  0  4           0  0  0
   -4.2071   -0.1105   -0.3625 C   0  0  0  0  0  4           0  0  0
   -2.0196   -0.1116   -1.3537 C   0  0  0  0  0  4           0  0  0
   -8.0660   -1.9082    0.3415 C   0  0  0  0  0  4           0  0  0
  -10.6805   -1.5708    4.6243 C   0  0  0  0  0  4           0  0  0
   -2.7997   -0.0822   -0.1800 C   0  0  0  0  0  4           0  0  0
  -11.4398   -1.0524    6.8683 C   0  0  0  0  0  4           0  0  0
  -12.8153   -2.4074    5.4075 C   0  0  0  0  0  4           0  0  0
   -0.6347   -0.0770   -1.2425 C   0  0  0  0  0  4           0  0  0
   -2.1400   -0.0375    1.0797 C   0  0  0  0  0  4           0  0  0
  -10.4772   -0.9493    5.8637 C   0  0  0  0  0  4           0  0  0
  -11.8548   -2.3020    4.4003 C   0  0  0  0  0  4           0  0  0
   -9.6229   -1.9325    2.3444 C   0  0  0  0  0  4           0  0  0
    1.9789    1.1168    0.6448 C   0  0  0  0  0  4           0  0  0
    5.6085    3.5776    3.8608 C   0  0  0  0  0  4           0  0  0
    5.6624    1.2352    3.6997 C   0  0  0  0  0  4           0  0  0
   -0.8352    0.0137    3.5353 C   0  0  0  0  0  4           0  0  0
    5.2188    3.6982    2.3893 C   0  0  0  0  0  4           0  0  0
    5.2900    1.3000    2.2218 C   0  0  0  0  0  4           0  0  0
    4.0953    2.5652    0.5521 C   0  0  0  0  0  4           0  0  0
    3.3135    1.3830   -0.0367 C   0  0  0  0  0  4           0  0  0
  1 13  1  0     0  0
  1 14  1  0     0  0
  2 15  1  0     0  0
  3 16  1  0     0  0
  3 31  1  0     0  0
  4 17  1  0     0  0
  4 34  1  0     0  0
  5 30  2  0     0  0
  6 32  1  0     0  0
  6 33  1  0     0  0
  7 13  2  0     0  0
  7 21  1  0     0  0
  8 18  1  0     0  0
  8 19  2  0     0  0
  9 18  2  0     0  0
  9 20  1  0     0  0
 10 13  1  0     0  0
 10 19  1  0     0  0
 11 22  1  0     0  0
 11 30  1  0     0  0
 12 35  1  0     0  0
 12 36  1  0     0  0
 12 37  1  0     0  0
 14 21  2  0     0  0
 14 30  1  0     0  0
 15 24  1  0     0  0
 15 25  2  0     0  0
 16 17  1  0     0  0
 16 26  2  0     0  0
 17 27  2  0     0  0
 19 23  1  0     0  0
 20 23  2  0     0  0
 20 26  1  0     0  0
 22 28  1  0     0  0
 22 29  2  0     0  0
 23 27  1  0     0  0
 24 28  2  0     0  0
 25 29  1  0     0  0
 31 38  1  0     0  0
 32 35  1  0     0  0
 33 36  1  0     0  0
 37 38  1  0     0  0
M  END
> <standard_type>
pIC50

> <# Confs.>
25

> <canonical_smiles>
FC(C=C1)=CC=C1NC(C(S2)=CN=C2NC3=NC=NC4=C3C=C(OC)C(OCCCN5CCOCC5)=C4)=O

> <standard_relation>
=

> <Publication_ID>
nan

> <predicted_activity_value>
7.00436480540245

> <actual_activity_value>
7.309803919971486

> <Compound>
32

> <standard_units>
nM

> hash
1274051342031181450

$$$$
32_
XXILIB    08252103423D 0   0.00000     0.00000

 38 42  0     1  0            999 V2000
   -7.4871   -0.0519    1.8613 S   0  0  0  0  0  2           0  0  0
  -14.9369    0.6105    5.6035 F   0  0  0  0  0  1           0  0  0
    1.3663   -0.0000   -0.0000 O   0  0  0  0  0  2           0  0  0
   -0.0427    0.0142    2.3509 O   0  0  0  0  0  2           0  0  0
  -10.6773   -2.3336    1.6252 O   0  0  0  0  0  2           0  0  0
    3.3822    6.6470   -0.1889 O   0  0  0  0  0  2           0  0  0
   -6.6286   -1.8221    0.2093 N   0  0  0  0  0  3           0  0  0
   -4.7528   -0.1996   -1.6014 N   0  0  0  0  0  3           0  0  0
   -2.5632   -0.1768   -2.5760 N   0  0  0  0  0  3           0  0  0
   -5.0591   -0.1069    0.7620 N   0  0  0  0  0  3           0  0  0
  -10.2596   -0.4099    2.8269 N   0  0  0  0  0  3           0  0  0
    3.4641    3.8864    0.5238 N   0  0  2  0  0  3           0  0  0
   -6.2616   -0.7242    0.8418 C   0  0  0  0  0  4           0  0  0
   -8.5626   -1.3116    1.4290 C   0  0  0  0  0  4           0  0  0
  -13.8073    0.3510    4.9301 C   0  0  0  0  0  4           0  0  0
    0.0000    0.0000    0.0000 C   0  0  0  0  0  4           0  0  0
   -0.7452    0.0000    1.1789 C   0  0  0  0  0  4           0  0  0
   -3.9016   -0.2203   -2.6359 C   0  0  0  0  0  4           0  0  0
   -4.2071   -0.1105   -0.3625 C   0  0  0  0  0  4           0  0  0
   -2.0196   -0.1116   -1.3537 C   0  0  0  0  0  4           0  0  0
   -7.9267   -2.1539    0.5397 C   0  0  0  0  0  4           0  0  0
  -11.4650   -0.1847    3.5221 C   0  0  0  0  0  4           0  0  0
   -2.7997   -0.0822   -0.1800 C   0  0  0  0  0  4           0  0  0
  -12.7172    1.2035    5.0667 C   0  0  0  0  0  4           0  0  0
  -13.7442   -0.7662    4.1036 C   0  0  0  0  0  4           0  0  0
   -0.6347   -0.0770   -1.2425 C   0  0  0  0  0  4           0  0  0
   -2.1400   -0.0375    1.0797 C   0  0  0  0  0  4           0  0  0
  -11.5433    0.9338    4.3627 C   0  0  0  0  0  4           0  0  0
  -12.5716   -1.0351    3.3959 C   0  0  0  0  0  4           0  0  0
   -9.9107   -1.4237    1.9421 C   0  0  0  0  0  4           0  0  0
    1.9789    1.1168    0.6448 C   0  0  0  0  0  4           0  0  0
    2.5209    5.7068   -0.8315 C   0  0  0  0  0  4           0  0  0
    3.6496    6.2488    1.1555 C   0  0  0  0  0  4           0  0  0
   -0.8352    0.0137    3.5353 C   0  0  0  0  0  4           0  0  0
    3.1613    4.3206   -0.8505 C   0  0  0  0  0  4           0  0  0
    4.3288    4.8830    1.1757 C   0  0  0  0  0  4           0  0  0
    4.0953    2.5652    0.5521 C   0  0  0  0  0  4           0  0  0
    3.3135    1.3830   -0.0367 C   0  0  0  0  0  4           0  0  0
  1 13  1  0     0  0
  1 14  1  0     0  0
  2 15  1  0     0  0
  3 16  1  0     0  0
  3 31  1  0     0  0
  4 17  1  0     0  0
  4 34  1  0     0  0
  5 30  2  0     0  0
  6 32  1  0     0  0
  6 33  1  0     0  0
  7 13  2  0     0  0
  7 21  1  0     0  0
  8 18  1  0     0  0
  8 19  2  0     0  0
  9 18  2  0     0  0
  9 20  1  0     0  0
 10 13  1  0     0  0
 10 19  1  0     0  0
 11 22  1  0     0  0
 11 30  1  0     0  0
 12 35  1  0     0  0
 12 36  1  0     0  0
 12 37  1  0     0  0
 14 21  2  0     0  0
 14 30  1  0     0  0
 15 24  1  0     0  0
 15 25  2  0     0  0
 16 17  1  0     0  0
 16 26  2  0     0  0
 17 27  2  0     0  0
 19 23  1  0     0  0
 20 23  2  0     0  0
 20 26  1  0     0  0
 22 28  1  0     0  0
 22 29  2  0     0  0
 23 27  1  0     0  0
 24 28  2  0     0  0
 25 29  1  0     0  0
 31 38  1  0     0  0
 32 35  1  0     0  0
 33 36  1  0     0  0
 37 38  1  0     0  0
M  END
> <standard_type>
pIC50

> <# Confs.>
25

> <canonical_smiles>
FC(C=C1)=CC=C1NC(C(S2)=CN=C2NC3=NC=NC4=C3C=C(OC)C(OCCCN5CCOCC5)=C4)=O

> <standard_relation>
=

> <Publication_ID>
nan

> <predicted_activity_value>
7.00436480540245

> <actual_activity_value>
7.309803919971486

> <Compound>
32

> <standard_units>
nM

> hash
1274051342031181450

$$$$
32_
XXILIB    08252103423D 0   0.00000     0.00000

 38 42  0     1  0            999 V2000
   -7.1709   -0.6101    2.3092 S   0  0  0  0  0  2           0  0  0
  -13.5277   -1.8779    7.5938 F   0  0  0  0  0  1           0  0  0
    1.3663   -0.0000    0.0000 O   0  0  0  0  0  2           0  0  0
   -0.0427    0.0142    2.3509 O   0  0  0  0  0  2           0  0  0
  -10.5139   -2.6230    1.8491 O   0  0  0  0  0  2           0  0  0
    7.6563   -0.3735   -2.4434 O   0  0  0  0  0  2           0  0  0
   -6.8498   -1.4316   -0.1037 N   0  0  0  0  0  3           0  0  0
   -4.7528   -0.1996   -1.6014 N   0  0  0  0  0  3           0  0  0
   -2.5632   -0.1768   -2.5760 N   0  0  0  0  0  3           0  0  0
   -5.0591   -0.1069    0.7620 N   0  0  0  0  0  3           0  0  0
   -9.6816   -1.4310    3.6396 N   0  0  0  0  0  3           0  0  0
    5.6079    0.3748   -0.6050 N   0  0  2  0  0  3           0  0  0
   -6.2616   -0.7242    0.8418 C   0  0  0  0  0  4           0  0  0
   -8.4169   -1.5692    1.6324 C   0  0  0  0  0  4           0  0  0
  -12.6005   -1.7804    6.6306 C   0  0  0  0  0  4           0  0  0
    0.0000    0.0000    0.0000 C   0  0  0  0  0  4           0  0  0
   -0.7452    0.0000    1.1789 C   0  0  0  0  0  4           0  0  0
   -3.9016   -0.2203   -2.6359 C   0  0  0  0  0  4           0  0  0
   -4.2071   -0.1105   -0.3625 C   0  0  0  0  0  4           0  0  0
   -2.0196   -0.1116   -1.3537 C   0  0  0  0  0  4           0  0  0
   -8.0660   -1.9082    0.3415 C   0  0  0  0  0  4           0  0  0
  -10.6805   -1.5708    4.6243 C   0  0  0  0  0  4           0  0  0
   -2.7997   -0.0822   -0.1800 C   0  0  0  0  0  4           0  0  0
  -11.4398   -1.0524    6.8683 C   0  0  0  0  0  4           0  0  0
  -12.8153   -2.4074    5.4075 C   0  0  0  0  0  4           0  0  0
   -0.6347   -0.0770   -1.2425 C   0  0  0  0  0  4           0  0  0
   -2.1400   -0.0375    1.0797 C   0  0  0  0  0  4           0  0  0
  -10.4772   -0.9493    5.8637 C   0  0  0  0  0  4           0  0  0
  -11.8548   -2.3020    4.4003 C   0  0  0  0  0  4           0  0  0
   -9.6229   -1.9325    2.3444 C   0  0  0  0  0  4           0  0  0
    1.9789    1.1168    0.6448 C   0  0  0  0  0  4           0  0  0
    6.8801    0.8046   -2.6634 C   0  0  0  0  0  4           0  0  0
    7.8023   -0.6275   -1.0464 C   0  0  0  0  0  4           0  0  0
   -0.8352    0.0137    3.5353 C   0  0  0  0  0  4           0  0  0
    5.4915    0.6534   -2.0465 C   0  0  0  0  0  4           0  0  0
    6.4344   -0.8257   -0.4009 C   0  0  0  0  0  4           0  0  0
    4.2970    0.2066    0.0260 C   0  0  0  0  0  4           0  0  0
    3.3135    1.3830   -0.0367 C   0  0  0  0  0  4           0  0  0
  1 13  1  0     0  0
  1 14  1  0     0  0
  2 15  1  0     0  0
  3 16  1  0     0  0
  3 31  1  0     0  0
  4 17  1  0     0  0
  4 34  1  0     0  0
  5 30  2  0     0  0
  6 32  1  0     0  0
  6 33  1  0     0  0
  7 13  2  0     0  0
  7 21  1  0     0  0
  8 18  1  0     0  0
  8 19  2  0     0  0
  9 18  2  0     0  0
  9 20  1  0     0  0
 10 13  1  0     0  0
 10 19  1  0     0  0
 11 22  1  0     0  0
 11 30  1  0     0  0
 12 35  1  0     0  0
 12 36  1  0     0  0
 12 37  1  0     0  0
 14 21  2  0     0  0
 14 30  1  0     0  0
 15 24  1  0     0  0
 15 25  2  0     0  0
 16 17  1  0     0  0
 16 26  2  0     0  0
 17 27  2  0     0  0
 19 23  1  0     0  0
 20 23  2  0     0  0
 20 26  1  0     0  0
 22 28  1  0     0  0
 22 29  2  0     0  0
 23 27  1  0     0  0
 24 28  2  0     0  0
 25 29  1  0     0  0
 31 38  1  0     0  0
 32 35  1  0     0  0
 33 36  1  0     0  0
 37 38  1  0     0  0
M  END
> <standard_type>
pIC50

> <# Confs.>
25

> <canonical_smiles>
FC(C=C1)=CC=C1NC(C(S2)=CN=C2NC3=NC=NC4=C3C=C(OC)C(OCCCN5CCOCC5)=C4)=O

> <standard_relation>
=

> <Publication_ID>
nan

> <predicted_activity_value>
7.00436480540245

> <actual_activity_value>
7.309803919971486

> <Compound>
32

> <standard_units>
nM

> hash
1274051342031181450

$$$$
32_
XXILIB    08252103423D 0   0.00000     0.00000

 38 42  0     1  0            999 V2000
   -7.1709   -0.6101    2.3092 S   0  0  0  0  0  2           0  0  0
  -13.5277   -1.8779    7.5938 F   0  0  0  0  0  1           0  0  0
    1.3663   -0.0000   -0.0000 O   0  0  0  0  0  2           0  0  0
   -0.0427    0.0142    2.3509 O   0  0  0  0  0  2           0  0  0
  -10.5139   -2.6230    1.8491 O   0  0  0  0  0  2           0  0  0
    3.3181   -6.6141   -0.2973 O   0  0  0  0  0  2           0  0  0
   -6.8498   -1.4316   -0.1037 N   0  0  0  0  0  3           0  0  0
   -4.7528   -0.1996   -1.6014 N   0  0  0  0  0  3           0  0  0
   -2.5632   -0.1768   -2.5760 N   0  0  0  0  0  3           0  0  0
   -5.0591   -0.1069    0.7620 N   0  0  0  0  0  3           0  0  0
   -9.6816   -1.4310    3.6396 N   0  0  0  0  0  3           0  0  0
    3.4641   -3.8864    0.5238 N   0  0  2  0  0  3           0  0  0
   -6.2616   -0.7242    0.8418 C   0  0  0  0  0  4           0  0  0
   -8.4169   -1.5692    1.6324 C   0  0  0  0  0  4           0  0  0
  -12.6005   -1.7804    6.6306 C   0  0  0  0  0  4           0  0  0
    0.0000    0.0000    0.0000 C   0  0  0  0  0  4           0  0  0
   -0.7452    0.0000    1.1789 C   0  0  0  0  0  4           0  0  0
   -3.9016   -0.2203   -2.6359 C   0  0  0  0  0  4           0  0  0
   -4.2071   -0.1105   -0.3625 C   0  0  0  0  0  4           0  0  0
   -2.0196   -0.1116   -1.3537 C   0  0  0  0  0  4           0  0  0
   -8.0660   -1.9082    0.3415 C   0  0  0  0  0  4           0  0  0
  -10.6805   -1.5708    4.6243 C   0  0  0  0  0  4           0  0  0
   -2.7997   -0.0822   -0.1800 C   0  0  0  0  0  4           0  0  0
  -11.4398   -1.0524    6.8683 C   0  0  0  0  0  4           0  0  0
  -12.8153   -2.4074    5.4075 C   0  0  0  0  0  4           0  0  0
   -0.6347   -0.0770   -1.2425 C   0  0  0  0  0  4           0  0  0
   -2.1400   -0.0375    1.0797 C   0  0  0  0  0  4           0  0  0
  -10.4772   -0.9493    5.8637 C   0  0  0  0  0  4           0  0  0
  -11.8548   -2.3020    4.4003 C   0  0  0  0  0  4           0  0  0
   -9.6229   -1.9325    2.3444 C   0  0  0  0  0  4           0  0  0
    1.9789   -1.1168    0.6448 C   0  0  0  0  0  4           0  0  0
    3.6362   -6.2800    1.0540 C   0  0  0  0  0  4           0  0  0
    2.4523   -5.6335   -0.8686 C   0  0  0  0  0  4           0  0  0
   -0.8352    0.0137    3.5353 C   0  0  0  0  0  4           0  0  0
    4.3272   -4.9199    1.1205 C   0  0  0  0  0  4           0  0  0
    3.1261   -4.2649   -0.8577 C   0  0  0  0  0  4           0  0  0
    4.0953   -2.5652    0.5521 C   0  0  0  0  0  4           0  0  0
    3.3135   -1.3830   -0.0367 C   0  0  0  0  0  4           0  0  0
  1 13  1  0     0  0
  1 14  1  0     0  0
  2 15  1  0     0  0
  3 16  1  0     0  0
  3 31  1  0     0  0
  4 17  1  0     0  0
  4 34  1  0     0  0
  5 30  2  0     0  0
  6 32  1  0     0  0
  6 33  1  0     0  0
  7 13  2  0     0  0
  7 21  1  0     0  0
  8 18  1  0     0  0
  8 19  2  0     0  0
  9 18  2  0     0  0
  9 20  1  0     0  0
 10 13  1  0     0  0
 10 19  1  0     0  0
 11 22  1  0     0  0
 11 30  1  0     0  0
 12 35  1  0     0  0
 12 36  1  0     0  0
 12 37  1  0     0  0
 14 21  2  0     0  0
 14 30  1  0     0  0
 15 24  1  0     0  0
 15 25  2  0     0  0
 16 17  1  0     0  0
 16 26  2  0     0  0
 17 27  2  0     0  0
 19 23  1  0     0  0
 20 23  2  0     0  0
 20 26  1  0     0  0
 22 28  1  0     0  0
 22 29  2  0     0  0
 23 27  1  0     0  0
 24 28  2  0     0  0
 25 29  1  0     0  0
 31 38  1  0     0  0
 32 35  1  0     0  0
 33 36  1  0     0  0
 37 38  1  0     0  0
M  END
> <standard_type>
pIC50

> <# Confs.>
25

> <canonical_smiles>
FC(C=C1)=CC=C1NC(C(S2)=CN=C2NC3=NC=NC4=C3C=C(OC)C(OCCCN5CCOCC5)=C4)=O

> <standard_relation>
=

> <Publication_ID>
nan

> <predicted_activity_value>
7.00436480540245

> <actual_activity_value>
7.309803919971486

> <Compound>
32

> <standard_units>
nM

> hash
1274051342031181450

$$$$
32_
XXILIB    08252103423D 0   0.00000     0.00000

 38 42  0     1  0            999 V2000
   -7.1709   -0.6101    2.3092 S   0  0  0  0  0  2           0  0  0
  -13.5277   -1.8779    7.5938 F   0  0  0  0  0  1           0  0  0
    1.3663    0.0000    0.0000 O   0  0  0  0  0  2           0  0  0
   -0.0427    0.0142    2.3509 O   0  0  0  0  0  2           0  0  0
  -10.5139   -2.6230    1.8491 O   0  0  0  0  0  2           0  0  0
    5.0308    4.8789   -3.3242 O   0  0  0  0  0  2           0  0  0
   -6.8498   -1.4316   -0.1037 N   0  0  0  0  0  3           0  0  0
   -4.7528   -0.1996   -1.6014 N   0  0  0  0  0  3           0  0  0
   -2.5632   -0.1768   -2.5760 N   0  0  0  0  0  3           0  0  0
   -5.0591   -0.1069    0.7620 N   0  0  0  0  0  3           0  0  0
   -9.6816   -1.4310    3.6396 N   0  0  0  0  0  3           0  0  0
    4.0959    3.3275   -1.1208 N   0  0  2  0  0  3           0  0  0
   -6.2616   -0.7242    0.8418 C   0  0  0  0  0  4           0  0  0
   -8.4169   -1.5692    1.6324 C   0  0  0  0  0  4           0  0  0
  -12.6005   -1.7804    6.6306 C   0  0  0  0  0  4           0  0  0
    0.0000    0.0000    0.0000 C   0  0  0  0  0  4           0  0  0
   -0.7452    0.0000    1.1789 C   0  0  0  0  0  4           0  0  0
   -3.9016   -0.2203   -2.6359 C   0  0  0  0  0  4           0  0  0
   -4.2071   -0.1105   -0.3625 C   0  0  0  0  0  4           0  0  0
   -2.0196   -0.1116   -1.3537 C   0  0  0  0  0  4           0  0  0
   -8.0660   -1.9082    0.3415 C   0  0  0  0  0  4           0  0  0
  -10.6805   -1.5708    4.6243 C   0  0  0  0  0  4           0  0  0
   -2.7997   -0.0822   -0.1800 C   0  0  0  0  0  4           0  0  0
  -11.4398   -1.0524    6.8683 C   0  0  0  0  0  4           0  0  0
  -12.8153   -2.4074    5.4075 C   0  0  0  0  0  4           0  0  0
   -0.6347   -0.0770   -1.2425 C   0  0  0  0  0  4           0  0  0
   -2.1400   -0.0375    1.0797 C   0  0  0  0  0  4           0  0  0
  -10.4772   -0.9493    5.8637 C   0  0  0  0  0  4           0  0  0
  -11.8548   -2.3020    4.4003 C   0  0  0  0  0  4           0  0  0
   -9.6229   -1.9325    2.3444 C   0  0  0  0  0  4           0  0  0
    1.9789    1.2896    0.0000 C   0  0  0  0  0  4           0  0  0
    4.2437    3.7081   -3.5444 C   0  0  0  0  0  4           0  0  0
    4.6701    5.5046   -2.0929 C   0  0  0  0  0  4           0  0  0
   -0.8352    0.0137    3.5353 C   0  0  0  0  0  4           0  0  0
    4.4457    2.7064   -2.4096 C   0  0  0  0  0  4           0  0  0
    4.8979    4.5463   -0.9281 C   0  0  0  0  0  4           0  0  0
    4.2900    2.4051    0.0000 C   0  0  0  0  0  4           0  0  0
    3.4886    1.0962    0.0000 C   0  0  0  0  0  4           0  0  0
  1 13  1  0     0  0
  1 14  1  0     0  0
  2 15  1  0     0  0
  3 16  1  0     0  0
  3 31  1  0     0  0
  4 17  1  0     0  0
  4 34  1  0     0  0
  5 30  2  0     0  0
  6 32  1  0     0  0
  6 33  1  0     0  0
  7 13  2  0     0  0
  7 21  1  0     0  0
  8 18  1  0     0  0
  8 19  2  0     0  0
  9 18  2  0     0  0
  9 20  1  0     0  0
 10 13  1  0     0  0
 10 19  1  0     0  0
 11 22  1  0     0  0
 11 30  1  0     0  0
 12 35  1  0     0  0
 12 36  1  0     0  0
 12 37  1  0     0  0
 14 21  2  0     0  0
 14 30  1  0     0  0
 15 24  1  0     0  0
 15 25  2  0     0  0
 16 17  1  0     0  0
 16 26  2  0     0  0
 17 27  2  0     0  0
 19 23  1  0     0  0
 20 23  2  0     0  0
 20 26  1  0     0  0
 22 28  1  0     0  0
 22 29  2  0     0  0
 23 27  1  0     0  0
 24 28  2  0     0  0
 25 29  1  0     0  0
 31 38  1  0     0  0
 32 35  1  0     0  0
 33 36  1  0     0  0
 37 38  1  0     0  0
M  END
> <standard_type>
pIC50

> <# Confs.>
25

> <canonical_smiles>
FC(C=C1)=CC=C1NC(C(S2)=CN=C2NC3=NC=NC4=C3C=C(OC)C(OCCCN5CCOCC5)=C4)=O

> <standard_relation>
=

> <Publication_ID>
nan

> <predicted_activity_value>
7.00436480540245

> <actual_activity_value>
7.309803919971486

> <Compound>
32

> <standard_units>
nM

> hash
1274051342031181450

$$$$
32_
XXILIB    08252103423D 0   0.00000     0.00000

 38 42  0     1  0            999 V2000
   -6.9780    0.6485    2.4513 S   0  0  0  0  0  2           0  0  0
  -12.8617    2.5447    8.0842 F   0  0  0  0  0  1           0  0  0
    1.3663   -0.0000   -0.0000 O   0  0  0  0  0  2           0  0  0
   -0.0427    0.0142    2.3509 O   0  0  0  0  0  2           0  0  0
   -9.5758    3.5951    2.5399 O   0  0  0  0  0  2           0  0  0
    6.3914    2.4031    4.0764 O   0  0  0  0  0  2           0  0  0
   -6.3470    1.8442    0.2668 N   0  0  0  0  0  3           0  0  0
   -4.7528   -0.1996   -1.6014 N   0  0  0  0  0  3           0  0  0
   -2.5632   -0.1768   -2.5760 N   0  0  0  0  0  3           0  0  0
   -5.0591   -0.1069    0.7620 N   0  0  0  0  0  3           0  0  0
   -9.1904    1.8529    4.0012 N   0  0  0  0  0  3           0  0  0
    4.4765    2.4992    1.9646 N   0  0  2  0  0  3           0  0  0
   -6.0272    0.8054    1.0145 C   0  0  0  0  0  4           0  0  0
   -7.8680    2.0509    2.0367 C   0  0  0  0  0  4           0  0  0
  -11.9800    2.3839    7.0874 C   0  0  0  0  0  4           0  0  0
    0.0000    0.0000    0.0000 C   0  0  0  0  0  4           0  0  0
   -0.7452    0.0000    1.1789 C   0  0  0  0  0  4           0  0  0
   -3.9016   -0.2203   -2.6359 C   0  0  0  0  0  4           0  0  0
   -4.2071   -0.1105   -0.3625 C   0  0  0  0  0  4           0  0  0
   -2.0196   -0.1116   -1.3537 C   0  0  0  0  0  4           0  0  0
   -7.3851    2.5475    0.8431 C   0  0  0  0  0  4           0  0  0
  -10.1424    2.0580    5.0204 C   0  0  0  0  0  4           0  0  0
   -2.7997   -0.0822   -0.1800 C   0  0  0  0  0  4           0  0  0
  -11.0926    1.3139    7.1237 C   0  0  0  0  0  4           0  0  0
  -11.9654    3.2915    6.0333 C   0  0  0  0  0  4           0  0  0
   -0.6347   -0.0770   -1.2425 C   0  0  0  0  0  4           0  0  0
   -2.1400   -0.0375    1.0797 C   0  0  0  0  0  4           0  0  0
  -10.1735    1.1497    6.0871 C   0  0  0  0  0  4           0  0  0
  -11.0439    3.1306    4.9973 C   0  0  0  0  0  4           0  0  0
   -8.9412    2.5855    2.8464 C   0  0  0  0  0  4           0  0  0
    1.9789    1.1168    0.6448 C   0  0  0  0  0  4           0  0  0
    5.6085    3.5776    3.8608 C   0  0  0  0  0  4           0  0  0
    5.6624    1.2352    3.6997 C   0  0  0  0  0  4           0  0  0
   -0.8352    0.0137    3.5353 C   0  0  0  0  0  4           0  0  0
    5.2188    3.6982    2.3893 C   0  0  0  0  0  4           0  0  0
    5.2900    1.3000    2.2218 C   0  0  0  0  0  4           0  0  0
    4.0953    2.5652    0.5521 C   0  0  0  0  0  4           0  0  0
    3.3135    1.3830   -0.0367 C   0  0  0  0  0  4           0  0  0
  1 13  1  0     0  0
  1 14  1  0     0  0
  2 15  1  0     0  0
  3 16  1  0     0  0
  3 31  1  0     0  0
  4 17  1  0     0  0
  4 34  1  0     0  0
  5 30  2  0     0  0
  6 32  1  0     0  0
  6 33  1  0     0  0
  7 13  2  0     0  0
  7 21  1  0     0  0
  8 18  1  0     0  0
  8 19  2  0     0  0
  9 18  2  0     0  0
  9 20  1  0     0  0
 10 13  1  0     0  0
 10 19  1  0     0  0
 11 22  1  0     0  0
 11 30  1  0     0  0
 12 35  1  0     0  0
 12 36  1  0     0  0
 12 37  1  0     0  0
 14 21  2  0     0  0
 14 30  1  0     0  0
 15 24  1  0     0  0
 15 25  2  0     0  0
 16 17  1  0     0  0
 16 26  2  0     0  0
 17 27  2  0     0  0
 19 23  1  0     0  0
 20 23  2  0     0  0
 20 26  1  0     0  0
 22 28  1  0     0  0
 22 29  2  0     0  0
 23 27  1  0     0  0
 24 28  2  0     0  0
 25 29  1  0     0  0
 31 38  1  0     0  0
 32 35  1  0     0  0
 33 36  1  0     0  0
 37 38  1  0     0  0
M  END
> <standard_type>
pIC50

> <# Confs.>
25

> <canonical_smiles>
FC(C=C1)=CC=C1NC(C(S2)=CN=C2NC3=NC=NC4=C3C=C(OC)C(OCCCN5CCOCC5)=C4)=O

> <standard_relation>
=

> <Publication_ID>
nan

> <predicted_activity_value>
7.00436480540245

> <actual_activity_value>
7.309803919971486

> <Compound>
32

> <standard_units>
nM

> hash
1274051342031181450

$$$$
32_
XXILIB    08252103423D 0   0.00000     0.00000

 38 42  0     1  0            999 V2000
   -7.1709   -0.6101    2.3092 S   0  0  0  0  0  2           0  0  0
  -13.5277   -1.8779    7.5938 F   0  0  0  0  0  1           0  0  0
    1.3663    0.0000    0.0000 O   0  0  0  0  0  2           0  0  0
   -0.0427    0.0142    2.3509 O   0  0  0  0  0  2           0  0  0
  -10.5139   -2.6230    1.8491 O   0  0  0  0  0  2           0  0  0
    5.0308   -4.8789    3.3242 O   0  0  0  0  0  2           0  0  0
   -6.8498   -1.4316   -0.1037 N   0  0  0  0  0  3           0  0  0
   -4.7528   -0.1996   -1.6014 N   0  0  0  0  0  3           0  0  0
   -2.5632   -0.1768   -2.5760 N   0  0  0  0  0  3           0  0  0
   -5.0591   -0.1069    0.7620 N   0  0  0  0  0  3           0  0  0
   -9.6816   -1.4310    3.6396 N   0  0  0  0  0  3           0  0  0
    4.0959   -3.3275    1.1208 N   0  0  2  0  0  3           0  0  0
   -6.2616   -0.7242    0.8418 C   0  0  0  0  0  4           0  0  0
   -8.4169   -1.5692    1.6324 C   0  0  0  0  0  4           0  0  0
  -12.6005   -1.7804    6.6306 C   0  0  0  0  0  4           0  0  0
    0.0000    0.0000    0.0000 C   0  0  0  0  0  4           0  0  0
   -0.7452    0.0000    1.1789 C   0  0  0  0  0  4           0  0  0
   -3.9016   -0.2203   -2.6359 C   0  0  0  0  0  4           0  0  0
   -4.2071   -0.1105   -0.3625 C   0  0  0  0  0  4           0  0  0
   -2.0196   -0.1116   -1.3537 C   0  0  0  0  0  4           0  0  0
   -8.0660   -1.9082    0.3415 C   0  0  0  0  0  4           0  0  0
  -10.6805   -1.5708    4.6243 C   0  0  0  0  0  4           0  0  0
   -2.7997   -0.0822   -0.1800 C   0  0  0  0  0  4           0  0  0
  -11.4398   -1.0524    6.8683 C   0  0  0  0  0  4           0  0  0
  -12.8153   -2.4074    5.4075 C   0  0  0  0  0  4           0  0  0
   -0.6347   -0.0770   -1.2425 C   0  0  0  0  0  4           0  0  0
   -2.1400   -0.0375    1.0797 C   0  0  0  0  0  4           0  0  0
  -10.4772   -0.9493    5.8637 C   0  0  0  0  0  4           0  0  0
  -11.8548   -2.3020    4.4003 C   0  0  0  0  0  4           0  0  0
   -9.6229   -1.9325    2.3444 C   0  0  0  0  0  4           0  0  0
    1.9789   -1.2896    0.0000 C   0  0  0  0  0  4           0  0  0
    4.2437   -3.7081    3.5444 C   0  0  0  0  0  4           0  0  0
    4.6701   -5.5046    2.0929 C   0  0  0  0  0  4           0  0  0
   -0.8352    0.0137    3.5353 C   0  0  0  0  0  4           0  0  0
    4.4457   -2.7064    2.4096 C   0  0  0  0  0  4           0  0  0
    4.8979   -4.5463    0.9281 C   0  0  0  0  0  4           0  0  0
    4.2900   -2.4051    0.0000 C   0  0  0  0  0  4           0  0  0
    3.4886   -1.0962    0.0000 C   0  0  0  0  0  4           0  0  0
  1 13  1  0     0  0
  1 14  1  0     0  0
  2 15  1  0     0  0
  3 16  1  0     0  0
  3 31  1  0     0  0
  4 17  1  0     0  0
  4 34  1  0     0  0
  5 30  2  0     0  0
  6 32  1  0     0  0
  6 33  1  0     0  0
  7 13  2  0     0  0
  7 21  1  0     0  0
  8 18  1  0     0  0
  8 19  2  0     0  0
  9 18  2  0     0  0
  9 20  1  0     0  0
 10 13  1  0     0  0
 10 19  1  0     0  0
 11 22  1  0     0  0
 11 30  1  0     0  0
 12 35  1  0     0  0
 12 36  1  0     0  0
 12 37  1  0     0  0
 14 21  2  0     0  0
 14 30  1  0     0  0
 15 24  1  0     0  0
 15 25  2  0     0  0
 16 17  1  0     0  0
 16 26  2  0     0  0
 17 27  2  0     0  0
 19 23  1  0     0  0
 20 23  2  0     0  0
 20 26  1  0     0  0
 22 28  1  0     0  0
 22 29  2  0     0  0
 23 27  1  0     0  0
 24 28  2  0     0  0
 25 29  1  0     0  0
 31 38  1  0     0  0
 32 35  1  0     0  0
 33 36  1  0     0  0
 37 38  1  0     0  0
M  END
> <standard_type>
pIC50

> <# Confs.>
25

> <canonical_smiles>
FC(C=C1)=CC=C1NC(C(S2)=CN=C2NC3=NC=NC4=C3C=C(OC)C(OCCCN5CCOCC5)=C4)=O

> <standard_relation>
=

> <Publication_ID>
nan

> <predicted_activity_value>
7.00436480540245

> <actual_activity_value>
7.309803919971486

> <Compound>
32

> <standard_units>
nM

> hash
1274051342031181450

$$$$
32_
XXILIB    08252103423D 0   0.00000     0.00000

 38 42  0     1  0            999 V2000
   -7.1709   -0.6101    2.3092 S   0  0  0  0  0  2           0  0  0
  -13.5277   -1.8779    7.5938 F   0  0  0  0  0  1           0  0  0
    1.3663   -0.0000   -0.0000 O   0  0  0  0  0  2           0  0  0
   -0.0427    0.0142    2.3509 O   0  0  0  0  0  2           0  0  0
  -10.5139   -2.6230    1.8491 O   0  0  0  0  0  2           0  0  0
    6.3001   -1.4847   -4.3735 O   0  0  0  0  0  2           0  0  0
   -6.8498   -1.4316   -0.1037 N   0  0  0  0  0  3           0  0  0
   -4.7528   -0.1996   -1.6014 N   0  0  0  0  0  3           0  0  0
   -2.5632   -0.1768   -2.5760 N   0  0  0  0  0  3           0  0  0
   -5.0591   -0.1069    0.7620 N   0  0  0  0  0  3           0  0  0
   -9.6816   -1.4310    3.6396 N   0  0  0  0  0  3           0  0  0
    4.4383   -1.9773   -2.2695 N   0  0  2  0  0  3           0  0  0
   -6.2616   -0.7242    0.8418 C   0  0  0  0  0  4           0  0  0
   -8.4169   -1.5692    1.6324 C   0  0  0  0  0  4           0  0  0
  -12.6005   -1.7804    6.6306 C   0  0  0  0  0  4           0  0  0
    0.0000    0.0000    0.0000 C   0  0  0  0  0  4           0  0  0
   -0.7452    0.0000    1.1789 C   0  0  0  0  0  4           0  0  0
   -3.9016   -0.2203   -2.6359 C   0  0  0  0  0  4           0  0  0
   -4.2071   -0.1105   -0.3625 C   0  0  0  0  0  4           0  0  0
   -2.0196   -0.1116   -1.3537 C   0  0  0  0  0  4           0  0  0
   -8.0660   -1.9082    0.3415 C   0  0  0  0  0  4           0  0  0
  -10.6805   -1.5708    4.6243 C   0  0  0  0  0  4           0  0  0
   -2.7997   -0.0822   -0.1800 C   0  0  0  0  0  4           0  0  0
  -11.4398   -1.0524    6.8683 C   0  0  0  0  0  4           0  0  0
  -12.8153   -2.4074    5.4075 C   0  0  0  0  0  4           0  0  0
   -0.6347   -0.0770   -1.2425 C   0  0  0  0  0  4           0  0  0
   -2.1400   -0.0375    1.0797 C   0  0  0  0  0  4           0  0  0
  -10.4772   -0.9493    5.8637 C   0  0  0  0  0  4           0  0  0
  -11.8548   -2.3020    4.4003 C   0  0  0  0  0  4           0  0  0
   -9.6229   -1.9325    2.3444 C   0  0  0  0  0  4           0  0  0
    1.9789   -1.1168    0.6448 C   0  0  0  0  0  4           0  0  0
    6.6268   -1.1518   -3.0239 C   0  0  0  0  0  4           0  0  0
    5.4335   -2.6181   -4.4174 C   0  0  0  0  0  4           0  0  0
   -0.8352    0.0137    3.5353 C   0  0  0  0  0  4           0  0  0
    5.3619   -0.8309   -2.2308 C   0  0  0  0  0  4           0  0  0
    4.1381   -2.3206   -3.6687 C   0  0  0  0  0  4           0  0  0
    3.2018   -1.7072   -1.5326 C   0  0  0  0  0  4           0  0  0
    3.3135   -1.3830   -0.0367 C   0  0  0  0  0  4           0  0  0
  1 13  1  0     0  0
  1 14  1  0     0  0
  2 15  1  0     0  0
  3 16  1  0     0  0
  3 31  1  0     0  0
  4 17  1  0     0  0
  4 34  1  0     0  0
  5 30  2  0     0  0
  6 32  1  0     0  0
  6 33  1  0     0  0
  7 13  2  0     0  0
  7 21  1  0     0  0
  8 18  1  0     0  0
  8 19  2  0     0  0
  9 18  2  0     0  0
  9 20  1  0     0  0
 10 13  1  0     0  0
 10 19  1  0     0  0
 11 22  1  0     0  0
 11 30  1  0     0  0
 12 35  1  0     0  0
 12 36  1  0     0  0
 12 37  1  0     0  0
 14 21  2  0     0  0
 14 30  1  0     0  0
 15 24  1  0     0  0
 15 25  2  0     0  0
 16 17  1  0     0  0
 16 26  2  0     0  0
 17 27  2  0     0  0
 19 23  1  0     0  0
 20 23  2  0     0  0
 20 26  1  0     0  0
 22 28  1  0     0  0
 22 29  2  0     0  0
 23 27  1  0     0  0
 24 28  2  0     0  0
 25 29  1  0     0  0
 31 38  1  0     0  0
 32 35  1  0     0  0
 33 36  1  0     0  0
 37 38  1  0     0  0
M  END
> <standard_type>
pIC50

> <# Confs.>
25

> <canonical_smiles>
FC(C=C1)=CC=C1NC(C(S2)=CN=C2NC3=NC=NC4=C3C=C(OC)C(OCCCN5CCOCC5)=C4)=O

> <standard_relation>
=

> <Publication_ID>
nan

> <predicted_activity_value>
7.00436480540245

> <actual_activity_value>
7.309803919971486

> <Compound>
32

> <standard_units>
nM

> hash
1274051342031181450

$$$$
32_
XXILIB    08252103423D 0   0.00000     0.00000

 38 42  0     1  0            999 V2000
   -7.1709   -0.6101    2.3092 S   0  0  0  0  0  2           0  0  0
  -13.5277   -1.8779    7.5938 F   0  0  0  0  0  1           0  0  0
    1.3663   -0.0000    0.0000 O   0  0  0  0  0  2           0  0  0
   -0.0427    0.0142    2.3509 O   0  0  0  0  0  2           0  0  0
  -10.5139   -2.6230    1.8491 O   0  0  0  0  0  2           0  0  0
    2.1182    5.4617   -3.0973 O   0  0  0  0  0  2           0  0  0
   -6.8498   -1.4316   -0.1037 N   0  0  0  0  0  3           0  0  0
   -4.7528   -0.1996   -1.6014 N   0  0  0  0  0  3           0  0  0
   -2.5632   -0.1768   -2.5760 N   0  0  0  0  0  3           0  0  0
   -5.0591   -0.1069    0.7620 N   0  0  0  0  0  3           0  0  0
   -9.6816   -1.4310    3.6396 N   0  0  0  0  0  3           0  0  0
    2.4156    2.8794   -1.9230 N   0  0  2  0  0  3           0  0  0
   -6.2616   -0.7242    0.8418 C   0  0  0  0  0  4           0  0  0
   -8.4169   -1.5692    1.6324 C   0  0  0  0  0  4           0  0  0
  -12.6005   -1.7804    6.6306 C   0  0  0  0  0  4           0  0  0
    0.0000    0.0000    0.0000 C   0  0  0  0  0  4           0  0  0
   -0.7452    0.0000    1.1789 C   0  0  0  0  0  4           0  0  0
   -3.9016   -0.2203   -2.6359 C   0  0  0  0  0  4           0  0  0
   -4.2071   -0.1105   -0.3625 C   0  0  0  0  0  4           0  0  0
   -2.0196   -0.1116   -1.3537 C   0  0  0  0  0  4           0  0  0
   -8.0660   -1.9082    0.3415 C   0  0  0  0  0  4           0  0  0
  -10.6805   -1.5708    4.6243 C   0  0  0  0  0  4           0  0  0
   -2.7997   -0.0822   -0.1800 C   0  0  0  0  0  4           0  0  0
  -11.4398   -1.0524    6.8683 C   0  0  0  0  0  4           0  0  0
  -12.8153   -2.4074    5.4075 C   0  0  0  0  0  4           0  0  0
   -0.6347   -0.0770   -1.2425 C   0  0  0  0  0  4           0  0  0
   -2.1400   -0.0375    1.0797 C   0  0  0  0  0  4           0  0  0
  -10.4772   -0.9493    5.8637 C   0  0  0  0  0  4           0  0  0
  -11.8548   -2.3020    4.4003 C   0  0  0  0  0  4           0  0  0
   -9.6229   -1.9325    2.3444 C   0  0  0  0  0  4           0  0  0
    1.9789    1.1168    0.6448 C   0  0  0  0  0  4           0  0  0
    1.5810    4.3063   -3.7418 C   0  0  0  0  0  4           0  0  0
    2.1050    5.2999   -1.6792 C   0  0  0  0  0  4           0  0  0
   -0.8352    0.0137    3.5353 C   0  0  0  0  0  4           0  0  0
    2.3969    3.0661   -3.3838 C   0  0  0  0  0  4           0  0  0
    2.9457    4.0916   -1.2786 C   0  0  0  0  0  4           0  0  0
    3.2018    1.7072   -1.5326 C   0  0  0  0  0  4           0  0  0
    3.3135    1.3830   -0.0367 C   0  0  0  0  0  4           0  0  0
  1 13  1  0     0  0
  1 14  1  0     0  0
  2 15  1  0     0  0
  3 16  1  0     0  0
  3 31  1  0     0  0
  4 17  1  0     0  0
  4 34  1  0     0  0
  5 30  2  0     0  0
  6 32  1  0     0  0
  6 33  1  0     0  0
  7 13  2  0     0  0
  7 21  1  0     0  0
  8 18  1  0     0  0
  8 19  2  0     0  0
  9 18  2  0     0  0
  9 20  1  0     0  0
 10 13  1  0     0  0
 10 19  1  0     0  0
 11 22  1  0     0  0
 11 30  1  0     0  0
 12 35  1  0     0  0
 12 36  1  0     0  0
 12 37  1  0     0  0
 14 21  2  0     0  0
 14 30  1  0     0  0
 15 24  1  0     0  0
 15 25  2  0     0  0
 16 17  1  0     0  0
 16 26  2  0     0  0
 17 27  2  0     0  0
 19 23  1  0     0  0
 20 23  2  0     0  0
 20 26  1  0     0  0
 22 28  1  0     0  0
 22 29  2  0     0  0
 23 27  1  0     0  0
 24 28  2  0     0  0
 25 29  1  0     0  0
 31 38  1  0     0  0
 32 35  1  0     0  0
 33 36  1  0     0  0
 37 38  1  0     0  0
M  END
> <standard_type>
pIC50

> <# Confs.>
25

> <canonical_smiles>
FC(C=C1)=CC=C1NC(C(S2)=CN=C2NC3=NC=NC4=C3C=C(OC)C(OCCCN5CCOCC5)=C4)=O

> <standard_relation>
=

> <Publication_ID>
nan

> <predicted_activity_value>
7.00436480540245

> <actual_activity_value>
7.309803919971486

> <Compound>
32

> <standard_units>
nM

> hash
1274051342031181450

$$$$
32_
XXILIB    08252103423D 0   0.00000     0.00000

 38 42  0     1  0            999 V2000
   -7.1709   -0.6101    2.3092 S   0  0  0  0  0  2           0  0  0
  -13.5277   -1.8779    7.5938 F   0  0  0  0  0  1           0  0  0
    1.3663    0.0000    0.0000 O   0  0  0  0  0  2           0  0  0
   -0.0427    0.0142    2.3509 O   0  0  0  0  0  2           0  0  0
  -10.5139   -2.6230    1.8491 O   0  0  0  0  0  2           0  0  0
    5.0043    4.7783    3.4025 O   0  0  0  0  0  2           0  0  0
   -6.8498   -1.4316   -0.1037 N   0  0  0  0  0  3           0  0  0
   -4.7528   -0.1996   -1.6014 N   0  0  0  0  0  3           0  0  0
   -2.5632   -0.1768   -2.5760 N   0  0  0  0  0  3           0  0  0
   -5.0591   -0.1069    0.7620 N   0  0  0  0  0  3           0  0  0
   -9.6816   -1.4310    3.6396 N   0  0  0  0  0  3           0  0  0
    4.0959    3.3275    1.1208 N   0  0  2  0  0  3           0  0  0
   -6.2616   -0.7242    0.8418 C   0  0  0  0  0  4           0  0  0
   -8.4169   -1.5692    1.6324 C   0  0  0  0  0  4           0  0  0
  -12.6005   -1.7804    6.6306 C   0  0  0  0  0  4           0  0  0
    0.0000    0.0000    0.0000 C   0  0  0  0  0  4           0  0  0
   -0.7452    0.0000    1.1789 C   0  0  0  0  0  4           0  0  0
   -3.9016   -0.2203   -2.6359 C   0  0  0  0  0  4           0  0  0
   -4.2071   -0.1105   -0.3625 C   0  0  0  0  0  4           0  0  0
   -2.0196   -0.1116   -1.3537 C   0  0  0  0  0  4           0  0  0
   -8.0660   -1.9082    0.3415 C   0  0  0  0  0  4           0  0  0
  -10.6805   -1.5708    4.6243 C   0  0  0  0  0  4           0  0  0
   -2.7997   -0.0822   -0.1800 C   0  0  0  0  0  4           0  0  0
  -11.4398   -1.0524    6.8683 C   0  0  0  0  0  4           0  0  0
  -12.8153   -2.4074    5.4075 C   0  0  0  0  0  4           0  0  0
   -0.6347   -0.0770   -1.2425 C   0  0  0  0  0  4           0  0  0
   -2.1400   -0.0375    1.0797 C   0  0  0  0  0  4           0  0  0
  -10.4772   -0.9493    5.8637 C   0  0  0  0  0  4           0  0  0
  -11.8548   -2.3020    4.4003 C   0  0  0  0  0  4           0  0  0
   -9.6229   -1.9325    2.3444 C   0  0  0  0  0  4           0  0  0
    1.9789    1.2896    0.0000 C   0  0  0  0  0  4           0  0  0
    4.7037    5.4585    2.1835 C   0  0  0  0  0  4           0  0  0
    4.1763    3.6255    3.5538 C   0  0  0  0  0  4           0  0  0
   -0.8352    0.0137    3.5353 C   0  0  0  0  0  4           0  0  0
    4.9266    4.5362    0.9871 C   0  0  0  0  0  4           0  0  0
    4.4018    2.6586    2.3956 C   0  0  0  0  0  4           0  0  0
    4.2900    2.4051    0.0000 C   0  0  0  0  0  4           0  0  0
    3.4886    1.0962    0.0000 C   0  0  0  0  0  4           0  0  0
  1 13  1  0     0  0
  1 14  1  0     0  0
  2 15  1  0     0  0
  3 16  1  0     0  0
  3 31  1  0     0  0
  4 17  1  0     0  0
  4 34  1  0     0  0
  5 30  2  0     0  0
  6 32  1  0     0  0
  6 33  1  0     0  0
  7 13  2  0     0  0
  7 21  1  0     0  0
  8 18  1  0     0  0
  8 19  2  0     0  0
  9 18  2  0     0  0
  9 20  1  0     0  0
 10 13  1  0     0  0
 10 19  1  0     0  0
 11 22  1  0     0  0
 11 30  1  0     0  0
 12 35  1  0     0  0
 12 36  1  0     0  0
 12 37  1  0     0  0
 14 21  2  0     0  0
 14 30  1  0     0  0
 15 24  1  0     0  0
 15 25  2  0     0  0
 16 17  1  0     0  0
 16 26  2  0     0  0
 17 27  2  0     0  0
 19 23  1  0     0  0
 20 23  2  0     0  0
 20 26  1  0     0  0
 22 28  1  0     0  0
 22 29  2  0     0  0
 23 27  1  0     0  0
 24 28  2  0     0  0
 25 29  1  0     0  0
 31 38  1  0     0  0
 32 35  1  0     0  0
 33 36  1  0     0  0
 37 38  1  0     0  0
M  END
> <standard_type>
pIC50

> <# Confs.>
25

> <canonical_smiles>
FC(C=C1)=CC=C1NC(C(S2)=CN=C2NC3=NC=NC4=C3C=C(OC)C(OCCCN5CCOCC5)=C4)=O

> <standard_relation>
=

> <Publication_ID>
nan

> <predicted_activity_value>
7.00436480540245

> <actual_activity_value>
7.309803919971486

> <Compound>
32

> <standard_units>
nM

> hash
1274051342031181450

$$$$
32_
XXILIB    08252103423D 0   0.00000     0.00000

 38 42  0     1  0            999 V2000
   -7.1709   -0.6101    2.3092 S   0  0  0  0  0  2           0  0  0
  -13.5277   -1.8779    7.5938 F   0  0  0  0  0  1           0  0  0
    1.3663   -0.0000   -0.0000 O   0  0  0  0  0  2           0  0  0
   -0.0427    0.0142    2.3509 O   0  0  0  0  0  2           0  0  0
  -10.5139   -2.6230    1.8491 O   0  0  0  0  0  2           0  0  0
    2.0876   -5.4037   -3.2098 O   0  0  0  0  0  2           0  0  0
   -6.8498   -1.4316   -0.1037 N   0  0  0  0  0  3           0  0  0
   -4.7528   -0.1996   -1.6014 N   0  0  0  0  0  3           0  0  0
   -2.5632   -0.1768   -2.5760 N   0  0  0  0  0  3           0  0  0
   -5.0591   -0.1069    0.7620 N   0  0  0  0  0  3           0  0  0
   -9.6816   -1.4310    3.6396 N   0  0  0  0  0  3           0  0  0
    2.4156   -2.8794   -1.9230 N   0  0  2  0  0  3           0  0  0
   -6.2616   -0.7242    0.8418 C   0  0  0  0  0  4           0  0  0
   -8.4169   -1.5692    1.6324 C   0  0  0  0  0  4           0  0  0
  -12.6005   -1.7804    6.6306 C   0  0  0  0  0  4           0  0  0
    0.0000    0.0000    0.0000 C   0  0  0  0  0  4           0  0  0
   -0.7452    0.0000    1.1789 C   0  0  0  0  0  4           0  0  0
   -3.9016   -0.2203   -2.6359 C   0  0  0  0  0  4           0  0  0
   -4.2071   -0.1105   -0.3625 C   0  0  0  0  0  4           0  0  0
   -2.0196   -0.1116   -1.3537 C   0  0  0  0  0  4           0  0  0
   -8.0660   -1.9082    0.3415 C   0  0  0  0  0  4           0  0  0
  -10.6805   -1.5708    4.6243 C   0  0  0  0  0  4           0  0  0
   -2.7997   -0.0822   -0.1800 C   0  0  0  0  0  4           0  0  0
  -11.4398   -1.0524    6.8683 C   0  0  0  0  0  4           0  0  0
  -12.8153   -2.4074    5.4075 C   0  0  0  0  0  4           0  0  0
   -0.6347   -0.0770   -1.2425 C   0  0  0  0  0  4           0  0  0
   -2.1400   -0.0375    1.0797 C   0  0  0  0  0  4           0  0  0
  -10.4772   -0.9493    5.8637 C   0  0  0  0  0  4           0  0  0
  -11.8548   -2.3020    4.4003 C   0  0  0  0  0  4           0  0  0
   -9.6229   -1.9325    2.3444 C   0  0  0  0  0  4           0  0  0
    1.9789   -1.1168    0.6448 C   0  0  0  0  0  4           0  0  0
    2.1123   -5.3144   -1.7850 C   0  0  0  0  0  4           0  0  0
    1.5346   -4.2177   -3.7798 C   0  0  0  0  0  4           0  0  0
   -0.8352    0.0137    3.5353 C   0  0  0  0  0  4           0  0  0
    2.9523   -4.1199   -1.3383 C   0  0  0  0  0  4           0  0  0
    2.3727   -3.0045   -3.3888 C   0  0  0  0  0  4           0  0  0
    3.2018   -1.7072   -1.5326 C   0  0  0  0  0  4           0  0  0
    3.3135   -1.3830   -0.0367 C   0  0  0  0  0  4           0  0  0
  1 13  1  0     0  0
  1 14  1  0     0  0
  2 15  1  0     0  0
  3 16  1  0     0  0
  3 31  1  0     0  0
  4 17  1  0     0  0
  4 34  1  0     0  0
  5 30  2  0     0  0
  6 32  1  0     0  0
  6 33  1  0     0  0
  7 13  2  0     0  0
  7 21  1  0     0  0
  8 18  1  0     0  0
  8 19  2  0     0  0
  9 18  2  0     0  0
  9 20  1  0     0  0
 10 13  1  0     0  0
 10 19  1  0     0  0
 11 22  1  0     0  0
 11 30  1  0     0  0
 12 35  1  0     0  0
 12 36  1  0     0  0
 12 37  1  0     0  0
 14 21  2  0     0  0
 14 30  1  0     0  0
 15 24  1  0     0  0
 15 25  2  0     0  0
 16 17  1  0     0  0
 16 26  2  0     0  0
 17 27  2  0     0  0
 19 23  1  0     0  0
 20 23  2  0     0  0
 20 26  1  0     0  0
 22 28  1  0     0  0
 22 29  2  0     0  0
 23 27  1  0     0  0
 24 28  2  0     0  0
 25 29  1  0     0  0
 31 38  1  0     0  0
 32 35  1  0     0  0
 33 36  1  0     0  0
 37 38  1  0     0  0
M  END
> <standard_type>
pIC50

> <# Confs.>
25

> <canonical_smiles>
FC(C=C1)=CC=C1NC(C(S2)=CN=C2NC3=NC=NC4=C3C=C(OC)C(OCCCN5CCOCC5)=C4)=O

> <standard_relation>
=

> <Publication_ID>
nan

> <predicted_activity_value>
7.00436480540245

> <actual_activity_value>
7.309803919971486

> <Compound>
32

> <standard_units>
nM

> hash
1274051342031181450

$$$$
32_
XXILIB    08252103423D 0   0.00000     0.00000

 38 42  0     1  0            999 V2000
   -7.4871   -0.0519    1.8613 S   0  0  0  0  0  2           0  0  0
  -14.9369    0.6105    5.6035 F   0  0  0  0  0  1           0  0  0
    1.3663   -0.0000   -0.0000 O   0  0  0  0  0  2           0  0  0
   -0.0427    0.0142    2.3509 O   0  0  0  0  0  2           0  0  0
  -10.6773   -2.3336    1.6252 O   0  0  0  0  0  2           0  0  0
    6.3849   -2.5329    4.0842 O   0  0  0  0  0  2           0  0  0
   -6.6286   -1.8221    0.2093 N   0  0  0  0  0  3           0  0  0
   -4.7528   -0.1996   -1.6014 N   0  0  0  0  0  3           0  0  0
   -2.5632   -0.1768   -2.5760 N   0  0  0  0  0  3           0  0  0
   -5.0591   -0.1069    0.7620 N   0  0  0  0  0  3           0  0  0
  -10.2596   -0.4099    2.8269 N   0  0  0  0  0  3           0  0  0
    4.4765   -2.4992    1.9646 N   0  0  2  0  0  3           0  0  0
   -6.2616   -0.7242    0.8418 C   0  0  0  0  0  4           0  0  0
   -8.5626   -1.3116    1.4290 C   0  0  0  0  0  4           0  0  0
  -13.8073    0.3510    4.9301 C   0  0  0  0  0  4           0  0  0
    0.0000    0.0000    0.0000 C   0  0  0  0  0  4           0  0  0
   -0.7452    0.0000    1.1789 C   0  0  0  0  0  4           0  0  0
   -3.9016   -0.2203   -2.6359 C   0  0  0  0  0  4           0  0  0
   -4.2071   -0.1105   -0.3625 C   0  0  0  0  0  4           0  0  0
   -2.0196   -0.1116   -1.3537 C   0  0  0  0  0  4           0  0  0
   -7.9267   -2.1539    0.5397 C   0  0  0  0  0  4           0  0  0
  -11.4650   -0.1847    3.5221 C   0  0  0  0  0  4           0  0  0
   -2.7997   -0.0822   -0.1800 C   0  0  0  0  0  4           0  0  0
  -12.7172    1.2035    5.0667 C   0  0  0  0  0  4           0  0  0
  -13.7442   -0.7662    4.1036 C   0  0  0  0  0  4           0  0  0
   -0.6347   -0.0770   -1.2425 C   0  0  0  0  0  4           0  0  0
   -2.1400   -0.0375    1.0797 C   0  0  0  0  0  4           0  0  0
  -11.5433    0.9338    4.3627 C   0  0  0  0  0  4           0  0  0
  -12.5716   -1.0351    3.3959 C   0  0  0  0  0  4           0  0  0
   -9.9107   -1.4237    1.9421 C   0  0  0  0  0  4           0  0  0
    1.9789   -1.1168    0.6448 C   0  0  0  0  0  4           0  0  0
    5.7225   -1.3202    3.7246 C   0  0  0  0  0  4           0  0  0
    5.5401   -3.6586    3.8459 C   0  0  0  0  0  4           0  0  0
   -0.8352    0.0137    3.5353 C   0  0  0  0  0  4           0  0  0
    5.3379   -1.3384    2.2470 C   0  0  0  0  0  4           0  0  0
    5.1671   -3.7344    2.3687 C   0  0  0  0  0  4           0  0  0
    4.0953   -2.5652    0.5521 C   0  0  0  0  0  4           0  0  0
    3.3135   -1.3830   -0.0367 C   0  0  0  0  0  4           0  0  0
  1 13  1  0     0  0
  1 14  1  0     0  0
  2 15  1  0     0  0
  3 16  1  0     0  0
  3 31  1  0     0  0
  4 17  1  0     0  0
  4 34  1  0     0  0
  5 30  2  0     0  0
  6 32  1  0     0  0
  6 33  1  0     0  0
  7 13  2  0     0  0
  7 21  1  0     0  0
  8 18  1  0     0  0
  8 19  2  0     0  0
  9 18  2  0     0  0
  9 20  1  0     0  0
 10 13  1  0     0  0
 10 19  1  0     0  0
 11 22  1  0     0  0
 11 30  1  0     0  0
 12 35  1  0     0  0
 12 36  1  0     0  0
 12 37  1  0     0  0
 14 21  2  0     0  0
 14 30  1  0     0  0
 15 24  1  0     0  0
 15 25  2  0     0  0
 16 17  1  0     0  0
 16 26  2  0     0  0
 17 27  2  0     0  0
 19 23  1  0     0  0
 20 23  2  0     0  0
 20 26  1  0     0  0
 22 28  1  0     0  0
 22 29  2  0     0  0
 23 27  1  0     0  0
 24 28  2  0     0  0
 25 29  1  0     0  0
 31 38  1  0     0  0
 32 35  1  0     0  0
 33 36  1  0     0  0
 37 38  1  0     0  0
M  END
> <standard_type>
pIC50

> <# Confs.>
25

> <canonical_smiles>
FC(C=C1)=CC=C1NC(C(S2)=CN=C2NC3=NC=NC4=C3C=C(OC)C(OCCCN5CCOCC5)=C4)=O

> <standard_relation>
=

> <Publication_ID>
nan

> <predicted_activity_value>
7.00436480540245

> <actual_activity_value>
7.309803919971486

> <Compound>
32

> <standard_units>
nM

> hash
1274051342031181450

$$$$
32_
XXILIB    08252103423D 0   0.00000     0.00000

 38 42  0     1  0            999 V2000
   -7.1709   -0.6101    2.3092 S   0  0  0  0  0  2           0  0  0
  -13.5277   -1.8779    7.5938 F   0  0  0  0  0  1           0  0  0
    1.3663   -0.0000   -0.0000 O   0  0  0  0  0  2           0  0  0
   -0.0427    0.0142    2.3509 O   0  0  0  0  0  2           0  0  0
  -10.5139   -2.6230    1.8491 O   0  0  0  0  0  2           0  0  0
    8.2100    3.3189    0.0832 O   0  0  0  0  0  2           0  0  0
   -6.8498   -1.4316   -0.1037 N   0  0  0  0  0  3           0  0  0
   -4.7528   -0.1996   -1.6014 N   0  0  0  0  0  3           0  0  0
   -2.5632   -0.1768   -2.5760 N   0  0  0  0  0  3           0  0  0
   -5.0591   -0.1069    0.7620 N   0  0  0  0  0  3           0  0  0
   -9.6816   -1.4310    3.6396 N   0  0  0  0  0  3           0  0  0
    5.3924    2.8936   -0.0431 N   0  0  2  0  0  3           0  0  0
   -6.2616   -0.7242    0.8418 C   0  0  0  0  0  4           0  0  0
   -8.4169   -1.5692    1.6324 C   0  0  0  0  0  4           0  0  0
  -12.6005   -1.7804    6.6306 C   0  0  0  0  0  4           0  0  0
    0.0000    0.0000    0.0000 C   0  0  0  0  0  4           0  0  0
   -0.7452    0.0000    1.1789 C   0  0  0  0  0  4           0  0  0
   -3.9016   -0.2203   -2.6359 C   0  0  0  0  0  4           0  0  0
   -4.2071   -0.1105   -0.3625 C   0  0  0  0  0  4           0  0  0
   -2.0196   -0.1116   -1.3537 C   0  0  0  0  0  4           0  0  0
   -8.0660   -1.9082    0.3415 C   0  0  0  0  0  4           0  0  0
  -10.6805   -1.5708    4.6243 C   0  0  0  0  0  4           0  0  0
   -2.7997   -0.0822   -0.1800 C   0  0  0  0  0  4           0  0  0
  -11.4398   -1.0524    6.8683 C   0  0  0  0  0  4           0  0  0
  -12.8153   -2.4074    5.4075 C   0  0  0  0  0  4           0  0  0
   -0.6347   -0.0770   -1.2425 C   0  0  0  0  0  4           0  0  0
   -2.1400   -0.0375    1.0797 C   0  0  0  0  0  4           0  0  0
  -10.4772   -0.9493    5.8637 C   0  0  0  0  0  4           0  0  0
  -11.8548   -2.3020    4.4003 C   0  0  0  0  0  4           0  0  0
   -9.6229   -1.9325    2.3444 C   0  0  0  0  0  4           0  0  0
    1.9789    1.1168    0.6448 C   0  0  0  0  0  4           0  0  0
    7.6799    2.1631   -0.5665 C   0  0  0  0  0  4           0  0  0
    7.3110    4.4212   -0.0363 C   0  0  0  0  0  4           0  0  0
   -0.8352    0.0137    3.5353 C   0  0  0  0  0  4           0  0  0
    6.3397    1.7699    0.0507 C   0  0  0  0  0  4           0  0  0
    5.9706    4.0804    0.6073 C   0  0  0  0  0  4           0  0  0
    4.0953    2.5652    0.5521 C   0  0  0  0  0  4           0  0  0
    3.3135    1.3830   -0.0367 C   0  0  0  0  0  4           0  0  0
  1 13  1  0     0  0
  1 14  1  0     0  0
  2 15  1  0     0  0
  3 16  1  0     0  0
  3 31  1  0     0  0
  4 17  1  0     0  0
  4 34  1  0     0  0
  5 30  2  0     0  0
  6 32  1  0     0  0
  6 33  1  0     0  0
  7 13  2  0     0  0
  7 21  1  0     0  0
  8 18  1  0     0  0
  8 19  2  0     0  0
  9 18  2  0     0  0
  9 20  1  0     0  0
 10 13  1  0     0  0
 10 19  1  0     0  0
 11 22  1  0     0  0
 11 30  1  0     0  0
 12 35  1  0     0  0
 12 36  1  0     0  0
 12 37  1  0     0  0
 14 21  2  0     0  0
 14 30  1  0     0  0
 15 24  1  0     0  0
 15 25  2  0     0  0
 16 17  1  0     0  0
 16 26  2  0     0  0
 17 27  2  0     0  0
 19 23  1  0     0  0
 20 23  2  0     0  0
 20 26  1  0     0  0
 22 28  1  0     0  0
 22 29  2  0     0  0
 23 27  1  0     0  0
 24 28  2  0     0  0
 25 29  1  0     0  0
 31 38  1  0     0  0
 32 35  1  0     0  0
 33 36  1  0     0  0
 37 38  1  0     0  0
M  END
> <standard_type>
pIC50

> <# Confs.>
25

> <canonical_smiles>
FC(C=C1)=CC=C1NC(C(S2)=CN=C2NC3=NC=NC4=C3C=C(OC)C(OCCCN5CCOCC5)=C4)=O

> <standard_relation>
=

> <Publication_ID>
nan

> <predicted_activity_value>
7.00436480540245

> <actual_activity_value>
7.309803919971486

> <Compound>
32

> <standard_units>
nM

> hash
1274051342031181450

$$$$
32_
XXILIB    08252103423D 0   0.00000     0.00000

 38 42  0     1  0            999 V2000
   -7.1709   -0.6101    2.3092 S   0  0  0  0  0  2           0  0  0
  -13.5277   -1.8779    7.5938 F   0  0  0  0  0  1           0  0  0
    1.3663    0.0000    0.0000 O   0  0  0  0  0  2           0  0  0
   -0.0427    0.0142    2.3509 O   0  0  0  0  0  2           0  0  0
  -10.5139   -2.6230    1.8491 O   0  0  0  0  0  2           0  0  0
    7.7599   -1.5943    1.5015 O   0  0  0  0  0  2           0  0  0
   -6.8498   -1.4316   -0.1037 N   0  0  0  0  0  3           0  0  0
   -4.7528   -0.1996   -1.6014 N   0  0  0  0  0  3           0  0  0
   -2.5632   -0.1768   -2.5760 N   0  0  0  0  0  3           0  0  0
   -5.0591   -0.1069    0.7620 N   0  0  0  0  0  3           0  0  0
   -9.6816   -1.4310    3.6396 N   0  0  0  0  0  3           0  0  0
    5.4667    0.0892    1.2948 N   0  0  2  0  0  3           0  0  0
   -6.2616   -0.7242    0.8418 C   0  0  0  0  0  4           0  0  0
   -8.4169   -1.5692    1.6324 C   0  0  0  0  0  4           0  0  0
  -12.6005   -1.7804    6.6306 C   0  0  0  0  0  4           0  0  0
    0.0000    0.0000    0.0000 C   0  0  0  0  0  4           0  0  0
   -0.7452    0.0000    1.1789 C   0  0  0  0  0  4           0  0  0
   -3.9016   -0.2203   -2.6359 C   0  0  0  0  0  4           0  0  0
   -4.2071   -0.1105   -0.3625 C   0  0  0  0  0  4           0  0  0
   -2.0196   -0.1116   -1.3537 C   0  0  0  0  0  4           0  0  0
   -8.0660   -1.9082    0.3415 C   0  0  0  0  0  4           0  0  0
  -10.6805   -1.5708    4.6243 C   0  0  0  0  0  4           0  0  0
   -2.7997   -0.0822   -0.1800 C   0  0  0  0  0  4           0  0  0
  -11.4398   -1.0524    6.8683 C   0  0  0  0  0  4           0  0  0
  -12.8153   -2.4074    5.4075 C   0  0  0  0  0  4           0  0  0
   -0.6347   -0.0770   -1.2425 C   0  0  0  0  0  4           0  0  0
   -2.1400   -0.0375    1.0797 C   0  0  0  0  0  4           0  0  0
  -10.4772   -0.9493    5.8637 C   0  0  0  0  0  4           0  0  0
  -11.8548   -2.3020    4.4003 C   0  0  0  0  0  4           0  0  0
   -9.6229   -1.9325    2.3444 C   0  0  0  0  0  4           0  0  0
    1.9789    1.2896    0.0000 C   0  0  0  0  0  4           0  0  0
    7.4679   -0.9140    0.2805 C   0  0  0  0  0  4           0  0  0
    7.3109   -0.8332    2.6224 C   0  0  0  0  0  4           0  0  0
   -0.8352    0.0137    3.5353 C   0  0  0  0  0  4           0  0  0
    5.9648   -0.6822    0.1434 C   0  0  0  0  0  4           0  0  0
    5.8032   -0.6157    2.5422 C   0  0  0  0  0  4           0  0  0
    4.0231    0.3220    1.2125 C   0  0  0  0  0  4           0  0  0
    3.4886    1.0962    0.0000 C   0  0  0  0  0  4           0  0  0
  1 13  1  0     0  0
  1 14  1  0     0  0
  2 15  1  0     0  0
  3 16  1  0     0  0
  3 31  1  0     0  0
  4 17  1  0     0  0
  4 34  1  0     0  0
  5 30  2  0     0  0
  6 32  1  0     0  0
  6 33  1  0     0  0
  7 13  2  0     0  0
  7 21  1  0     0  0
  8 18  1  0     0  0
  8 19  2  0     0  0
  9 18  2  0     0  0
  9 20  1  0     0  0
 10 13  1  0     0  0
 10 19  1  0     0  0
 11 22  1  0     0  0
 11 30  1  0     0  0
 12 35  1  0     0  0
 12 36  1  0     0  0
 12 37  1  0     0  0
 14 21  2  0     0  0
 14 30  1  0     0  0
 15 24  1  0     0  0
 15 25  2  0     0  0
 16 17  1  0     0  0
 16 26  2  0     0  0
 17 27  2  0     0  0
 19 23  1  0     0  0
 20 23  2  0     0  0
 20 26  1  0     0  0
 22 28  1  0     0  0
 22 29  2  0     0  0
 23 27  1  0     0  0
 24 28  2  0     0  0
 25 29  1  0     0  0
 31 38  1  0     0  0
 32 35  1  0     0  0
 33 36  1  0     0  0
 37 38  1  0     0  0
M  END
> <standard_type>
pIC50

> <# Confs.>
25

> <canonical_smiles>
FC(C=C1)=CC=C1NC(C(S2)=CN=C2NC3=NC=NC4=C3C=C(OC)C(OCCCN5CCOCC5)=C4)=O

> <standard_relation>
=

> <Publication_ID>
nan

> <predicted_activity_value>
7.00436480540245

> <actual_activity_value>
7.309803919971486

> <Compound>
32

> <standard_units>
nM

> hash
1274051342031181450

$$$$
32_
XXILIB    08252103423D 0   0.00000     0.00000

 38 42  0     1  0            999 V2000
   -7.1709   -0.6101    2.3092 S   0  0  0  0  0  2           0  0  0
  -13.5277   -1.8779    7.5938 F   0  0  0  0  0  1           0  0  0
    1.3663   -0.0000    0.0000 O   0  0  0  0  0  2           0  0  0
   -0.0427    0.0142    2.3509 O   0  0  0  0  0  2           0  0  0
  -10.5139   -2.6230    1.8491 O   0  0  0  0  0  2           0  0  0
    6.1186    3.6061   -3.9003 O   0  0  0  0  0  2           0  0  0
   -6.8498   -1.4316   -0.1037 N   0  0  0  0  0  3           0  0  0
   -4.7528   -0.1996   -1.6014 N   0  0  0  0  0  3           0  0  0
   -2.5632   -0.1768   -2.5760 N   0  0  0  0  0  3           0  0  0
   -5.0591   -0.1069    0.7620 N   0  0  0  0  0  3           0  0  0
   -9.6816   -1.4310    3.6396 N   0  0  0  0  0  3           0  0  0
    4.4383    1.9773   -2.2695 N   0  0  2  0  0  3           0  0  0
   -6.2616   -0.7242    0.8418 C   0  0  0  0  0  4           0  0  0
   -8.4169   -1.5692    1.6324 C   0  0  0  0  0  4           0  0  0
  -12.6005   -1.7804    6.6306 C   0  0  0  0  0  4           0  0  0
    0.0000    0.0000    0.0000 C   0  0  0  0  0  4           0  0  0
   -0.7452    0.0000    1.1789 C   0  0  0  0  0  4           0  0  0
   -3.9016   -0.2203   -2.6359 C   0  0  0  0  0  4           0  0  0
   -4.2071   -0.1105   -0.3625 C   0  0  0  0  0  4           0  0  0
   -2.0196   -0.1116   -1.3537 C   0  0  0  0  0  4           0  0  0
   -8.0660   -1.9082    0.3415 C   0  0  0  0  0  4           0  0  0
  -10.6805   -1.5708    4.6243 C   0  0  0  0  0  4           0  0  0
   -2.7997   -0.0822   -0.1800 C   0  0  0  0  0  4           0  0  0
  -11.4398   -1.0524    6.8683 C   0  0  0  0  0  4           0  0  0
  -12.8153   -2.4074    5.4075 C   0  0  0  0  0  4           0  0  0
   -0.6347   -0.0770   -1.2425 C   0  0  0  0  0  4           0  0  0
   -2.1400   -0.0375    1.0797 C   0  0  0  0  0  4           0  0  0
  -10.4772   -0.9493    5.8637 C   0  0  0  0  0  4           0  0  0
  -11.8548   -2.3020    4.4003 C   0  0  0  0  0  4           0  0  0
   -9.6229   -1.9325    2.3444 C   0  0  0  0  0  4           0  0  0
    1.9789    1.1168    0.6448 C   0  0  0  0  0  4           0  0  0
    6.4356    3.3864   -2.5254 C   0  0  0  0  0  4           0  0  0
    5.4459    2.4734   -4.4497 C   0  0  0  0  0  4           0  0  0
   -0.8352    0.0137    3.5353 C   0  0  0  0  0  4           0  0  0
    5.1650    3.1332   -1.7172 C   0  0  0  0  0  4           0  0  0
    4.1473    2.2131   -3.6927 C   0  0  0  0  0  4           0  0  0
    3.2018    1.7072   -1.5326 C   0  0  0  0  0  4           0  0  0
    3.3135    1.3830   -0.0367 C   0  0  0  0  0  4           0  0  0
  1 13  1  0     0  0
  1 14  1  0     0  0
  2 15  1  0     0  0
  3 16  1  0     0  0
  3 31  1  0     0  0
  4 17  1  0     0  0
  4 34  1  0     0  0
  5 30  2  0     0  0
  6 32  1  0     0  0
  6 33  1  0     0  0
  7 13  2  0     0  0
  7 21  1  0     0  0
  8 18  1  0     0  0
  8 19  2  0     0  0
  9 18  2  0     0  0
  9 20  1  0     0  0
 10 13  1  0     0  0
 10 19  1  0     0  0
 11 22  1  0     0  0
 11 30  1  0     0  0
 12 35  1  0     0  0
 12 36  1  0     0  0
 12 37  1  0     0  0
 14 21  2  0     0  0
 14 30  1  0     0  0
 15 24  1  0     0  0
 15 25  2  0     0  0
 16 17  1  0     0  0
 16 26  2  0     0  0
 17 27  2  0     0  0
 19 23  1  0     0  0
 20 23  2  0     0  0
 20 26  1  0     0  0
 22 28  1  0     0  0
 22 29  2  0     0  0
 23 27  1  0     0  0
 24 28  2  0     0  0
 25 29  1  0     0  0
 31 38  1  0     0  0
 32 35  1  0     0  0
 33 36  1  0     0  0
 37 38  1  0     0  0
M  END
> <standard_type>
pIC50

> <# Confs.>
25

> <canonical_smiles>
FC(C=C1)=CC=C1NC(C(S2)=CN=C2NC3=NC=NC4=C3C=C(OC)C(OCCCN5CCOCC5)=C4)=O

> <standard_relation>
=

> <Publication_ID>
nan

> <predicted_activity_value>
7.00436480540245

> <actual_activity_value>
7.309803919971486

> <Compound>
32

> <standard_units>
nM

> hash
1274051342031181450

$$$$
32_
XXILIB    08252103423D 0   0.00000     0.00000

 38 42  0     1  0            999 V2000
   -7.4871   -0.0519    1.8613 S   0  0  0  0  0  2           0  0  0
  -14.9369    0.6105    5.6035 F   0  0  0  0  0  1           0  0  0
    1.3663   -0.0000   -0.0000 O   0  0  0  0  0  2           0  0  0
   -0.0427    0.0142    2.3509 O   0  0  0  0  0  2           0  0  0
  -10.6773   -2.3336    1.6252 O   0  0  0  0  0  2           0  0  0
    6.3914    2.4031    4.0764 O   0  0  0  0  0  2           0  0  0
   -6.6286   -1.8221    0.2093 N   0  0  0  0  0  3           0  0  0
   -4.7528   -0.1996   -1.6014 N   0  0  0  0  0  3           0  0  0
   -2.5632   -0.1768   -2.5760 N   0  0  0  0  0  3           0  0  0
   -5.0591   -0.1069    0.7620 N   0  0  0  0  0  3           0  0  0
  -10.2596   -0.4099    2.8269 N   0  0  0  0  0  3           0  0  0
    4.4765    2.4992    1.9646 N   0  0  2  0  0  3           0  0  0
   -6.2616   -0.7242    0.8418 C   0  0  0  0  0  4           0  0  0
   -8.5626   -1.3116    1.4290 C   0  0  0  0  0  4           0  0  0
  -13.8073    0.3510    4.9301 C   0  0  0  0  0  4           0  0  0
    0.0000    0.0000    0.0000 C   0  0  0  0  0  4           0  0  0
   -0.7452    0.0000    1.1789 C   0  0  0  0  0  4           0  0  0
   -3.9016   -0.2203   -2.6359 C   0  0  0  0  0  4           0  0  0
   -4.2071   -0.1105   -0.3625 C   0  0  0  0  0  4           0  0  0
   -2.0196   -0.1116   -1.3537 C   0  0  0  0  0  4           0  0  0
   -7.9267   -2.1539    0.5397 C   0  0  0  0  0  4           0  0  0
  -11.4650   -0.1847    3.5221 C   0  0  0  0  0  4           0  0  0
   -2.7997   -0.0822   -0.1800 C   0  0  0  0  0  4           0  0  0
  -12.7172    1.2035    5.0667 C   0  0  0  0  0  4           0  0  0
  -13.7442   -0.7662    4.1036 C   0  0  0  0  0  4           0  0  0
   -0.6347   -0.0770   -1.2425 C   0  0  0  0  0  4           0  0  0
   -2.1400   -0.0375    1.0797 C   0  0  0  0  0  4           0  0  0
  -11.5433    0.9338    4.3627 C   0  0  0  0  0  4           0  0  0
  -12.5716   -1.0351    3.3959 C   0  0  0  0  0  4           0  0  0
   -9.9107   -1.4237    1.9421 C   0  0  0  0  0  4           0  0  0
    1.9789    1.1168    0.6448 C   0  0  0  0  0  4           0  0  0
    5.6085    3.5776    3.8608 C   0  0  0  0  0  4           0  0  0
    5.6624    1.2352    3.6997 C   0  0  0  0  0  4           0  0  0
   -0.8352    0.0137    3.5353 C   0  0  0  0  0  4           0  0  0
    5.2188    3.6982    2.3893 C   0  0  0  0  0  4           0  0  0
    5.2900    1.3000    2.2218 C   0  0  0  0  0  4           0  0  0
    4.0953    2.5652    0.5521 C   0  0  0  0  0  4           0  0  0
    3.3135    1.3830   -0.0367 C   0  0  0  0  0  4           0  0  0
  1 13  1  0     0  0
  1 14  1  0     0  0
  2 15  1  0     0  0
  3 16  1  0     0  0
  3 31  1  0     0  0
  4 17  1  0     0  0
  4 34  1  0     0  0
  5 30  2  0     0  0
  6 32  1  0     0  0
  6 33  1  0     0  0
  7 13  2  0     0  0
  7 21  1  0     0  0
  8 18  1  0     0  0
  8 19  2  0     0  0
  9 18  2  0     0  0
  9 20  1  0     0  0
 10 13  1  0     0  0
 10 19  1  0     0  0
 11 22  1  0     0  0
 11 30  1  0     0  0
 12 35  1  0     0  0
 12 36  1  0     0  0
 12 37  1  0     0  0
 14 21  2  0     0  0
 14 30  1  0     0  0
 15 24  1  0     0  0
 15 25  2  0     0  0
 16 17  1  0     0  0
 16 26  2  0     0  0
 17 27  2  0     0  0
 19 23  1  0     0  0
 20 23  2  0     0  0
 20 26  1  0     0  0
 22 28  1  0     0  0
 22 29  2  0     0  0
 23 27  1  0     0  0
 24 28  2  0     0  0
 25 29  1  0     0  0
 31 38  1  0     0  0
 32 35  1  0     0  0
 33 36  1  0     0  0
 37 38  1  0     0  0
M  END
> <standard_type>
pIC50

> <# Confs.>
25

> <canonical_smiles>
FC(C=C1)=CC=C1NC(C(S2)=CN=C2NC3=NC=NC4=C3C=C(OC)C(OCCCN5CCOCC5)=C4)=O

> <standard_relation>
=

> <Publication_ID>
nan

> <predicted_activity_value>
7.00436480540245

> <actual_activity_value>
7.309803919971486

> <Compound>
32

> <standard_units>
nM

> hash
1274051342031181450

$$$$
32_
XXILIB    08252103423D 0   0.00000     0.00000

 38 42  0     1  0            999 V2000
   -6.9780    0.6485    2.4513 S   0  0  0  0  0  2           0  0  0
  -12.8617    2.5447    8.0842 F   0  0  0  0  0  1           0  0  0
    1.3663    0.0000    0.0000 O   0  0  0  0  0  2           0  0  0
   -0.0427    0.0142    2.3509 O   0  0  0  0  0  2           0  0  0
   -9.5758    3.5951    2.5399 O   0  0  0  0  0  2           0  0  0
    5.0308    4.8789   -3.3242 O   0  0  0  0  0  2           0  0  0
   -6.3470    1.8442    0.2668 N   0  0  0  0  0  3           0  0  0
   -4.7528   -0.1996   -1.6014 N   0  0  0  0  0  3           0  0  0
   -2.5632   -0.1768   -2.5760 N   0  0  0  0  0  3           0  0  0
   -5.0591   -0.1069    0.7620 N   0  0  0  0  0  3           0  0  0
   -9.1904    1.8529    4.0012 N   0  0  0  0  0  3           0  0  0
    4.0959    3.3275   -1.1208 N   0  0  2  0  0  3           0  0  0
   -6.0272    0.8054    1.0145 C   0  0  0  0  0  4           0  0  0
   -7.8680    2.0509    2.0367 C   0  0  0  0  0  4           0  0  0
  -11.9800    2.3839    7.0874 C   0  0  0  0  0  4           0  0  0
    0.0000    0.0000    0.0000 C   0  0  0  0  0  4           0  0  0
   -0.7452    0.0000    1.1789 C   0  0  0  0  0  4           0  0  0
   -3.9016   -0.2203   -2.6359 C   0  0  0  0  0  4           0  0  0
   -4.2071   -0.1105   -0.3625 C   0  0  0  0  0  4           0  0  0
   -2.0196   -0.1116   -1.3537 C   0  0  0  0  0  4           0  0  0
   -7.3851    2.5475    0.8431 C   0  0  0  0  0  4           0  0  0
  -10.1424    2.0580    5.0204 C   0  0  0  0  0  4           0  0  0
   -2.7997   -0.0822   -0.1800 C   0  0  0  0  0  4           0  0  0
  -11.0926    1.3139    7.1237 C   0  0  0  0  0  4           0  0  0
  -11.9654    3.2915    6.0333 C   0  0  0  0  0  4           0  0  0
   -0.6347   -0.0770   -1.2425 C   0  0  0  0  0  4           0  0  0
   -2.1400   -0.0375    1.0797 C   0  0  0  0  0  4           0  0  0
  -10.1735    1.1497    6.0871 C   0  0  0  0  0  4           0  0  0
  -11.0439    3.1306    4.9973 C   0  0  0  0  0  4           0  0  0
   -8.9412    2.5855    2.8464 C   0  0  0  0  0  4           0  0  0
    1.9789    1.2896    0.0000 C   0  0  0  0  0  4           0  0  0
    4.2437    3.7081   -3.5444 C   0  0  0  0  0  4           0  0  0
    4.6701    5.5046   -2.0929 C   0  0  0  0  0  4           0  0  0
   -0.8352    0.0137    3.5353 C   0  0  0  0  0  4           0  0  0
    4.4457    2.7064   -2.4096 C   0  0  0  0  0  4           0  0  0
    4.8979    4.5463   -0.9281 C   0  0  0  0  0  4           0  0  0
    4.2900    2.4051    0.0000 C   0  0  0  0  0  4           0  0  0
    3.4886    1.0962    0.0000 C   0  0  0  0  0  4           0  0  0
  1 13  1  0     0  0
  1 14  1  0     0  0
  2 15  1  0     0  0
  3 16  1  0     0  0
  3 31  1  0     0  0
  4 17  1  0     0  0
  4 34  1  0     0  0
  5 30  2  0     0  0
  6 32  1  0     0  0
  6 33  1  0     0  0
  7 13  2  0     0  0
  7 21  1  0     0  0
  8 18  1  0     0  0
  8 19  2  0     0  0
  9 18  2  0     0  0
  9 20  1  0     0  0
 10 13  1  0     0  0
 10 19  1  0     0  0
 11 22  1  0     0  0
 11 30  1  0     0  0
 12 35  1  0     0  0
 12 36  1  0     0  0
 12 37  1  0     0  0
 14 21  2  0     0  0
 14 30  1  0     0  0
 15 24  1  0     0  0
 15 25  2  0     0  0
 16 17  1  0     0  0
 16 26  2  0     0  0
 17 27  2  0     0  0
 19 23  1  0     0  0
 20 23  2  0     0  0
 20 26  1  0     0  0
 22 28  1  0     0  0
 22 29  2  0     0  0
 23 27  1  0     0  0
 24 28  2  0     0  0
 25 29  1  0     0  0
 31 38  1  0     0  0
 32 35  1  0     0  0
 33 36  1  0     0  0
 37 38  1  0     0  0
M  END
> <standard_type>
pIC50

> <# Confs.>
25

> <canonical_smiles>
FC(C=C1)=CC=C1NC(C(S2)=CN=C2NC3=NC=NC4=C3C=C(OC)C(OCCCN5CCOCC5)=C4)=O

> <standard_relation>
=

> <Publication_ID>
nan

> <predicted_activity_value>
7.00436480540245

> <actual_activity_value>
7.309803919971486

> <Compound>
32

> <standard_units>
nM

> hash
1274051342031181450

$$$$
32_
XXILIB    08252103423D 0   0.00000     0.00000

 38 42  0     1  0            999 V2000
   -7.1709   -0.6101    2.3092 S   0  0  0  0  0  2           0  0  0
  -13.5277   -1.8779    7.5938 F   0  0  0  0  0  1           0  0  0
    1.3663   -0.0000    0.0000 O   0  0  0  0  0  2           0  0  0
   -0.0427    0.0142    2.3509 O   0  0  0  0  0  2           0  0  0
  -10.5139   -2.6230    1.8491 O   0  0  0  0  0  2           0  0  0
    6.3001   -0.9009    4.5299 O   0  0  0  0  0  2           0  0  0
   -6.8498   -1.4316   -0.1037 N   0  0  0  0  0  3           0  0  0
   -4.7528   -0.1996   -1.6014 N   0  0  0  0  0  3           0  0  0
   -2.5632   -0.1768   -2.5760 N   0  0  0  0  0  3           0  0  0
   -5.0591   -0.1069    0.7620 N   0  0  0  0  0  3           0  0  0
   -9.6816   -1.4310    3.6396 N   0  0  0  0  0  3           0  0  0
    4.4383    0.5777    2.9541 N   0  0  2  0  0  3           0  0  0
   -6.2616   -0.7242    0.8418 C   0  0  0  0  0  4           0  0  0
   -8.4169   -1.5692    1.6324 C   0  0  0  0  0  4           0  0  0
  -12.6005   -1.7804    6.6306 C   0  0  0  0  0  4           0  0  0
    0.0000    0.0000    0.0000 C   0  0  0  0  0  4           0  0  0
   -0.7452    0.0000    1.1789 C   0  0  0  0  0  4           0  0  0
   -3.9016   -0.2203   -2.6359 C   0  0  0  0  0  4           0  0  0
   -4.2071   -0.1105   -0.3625 C   0  0  0  0  0  4           0  0  0
   -2.0196   -0.1116   -1.3537 C   0  0  0  0  0  4           0  0  0
   -8.0660   -1.9082    0.3415 C   0  0  0  0  0  4           0  0  0
  -10.6805   -1.5708    4.6243 C   0  0  0  0  0  4           0  0  0
   -2.7997   -0.0822   -0.1800 C   0  0  0  0  0  4           0  0  0
  -11.4398   -1.0524    6.8683 C   0  0  0  0  0  4           0  0  0
  -12.8153   -2.4074    5.4075 C   0  0  0  0  0  4           0  0  0
   -0.6347   -0.0770   -1.2425 C   0  0  0  0  0  4           0  0  0
   -2.1400   -0.0375    1.0797 C   0  0  0  0  0  4           0  0  0
  -10.4772   -0.9493    5.8637 C   0  0  0  0  0  4           0  0  0
  -11.8548   -2.3020    4.4003 C   0  0  0  0  0  4           0  0  0
   -9.6229   -1.9325    2.3444 C   0  0  0  0  0  4           0  0  0
    1.9789    1.2896    0.0000 C   0  0  0  0  0  4           0  0  0
    6.6268   -0.5145    3.1947 C   0  0  0  0  0  4           0  0  0
    5.4335    0.0586    5.1347 C   0  0  0  0  0  4           0  0  0
   -0.8352    0.0137    3.5353 C   0  0  0  0  0  4           0  0  0
    5.3619   -0.3959    2.3474 C   0  0  0  0  0  4           0  0  0
    4.1381    0.1753    4.3375 C   0  0  0  0  0  4           0  0  0
    3.2018    0.7121    2.1809 C   0  0  0  0  0  4           0  0  0
    3.3135    1.1794    0.7233 C   0  0  0  0  0  4           0  0  0
  1 13  1  0     0  0
  1 14  1  0     0  0
  2 15  1  0     0  0
  3 16  1  0     0  0
  3 31  1  0     0  0
  4 17  1  0     0  0
  4 34  1  0     0  0
  5 30  2  0     0  0
  6 32  1  0     0  0
  6 33  1  0     0  0
  7 13  2  0     0  0
  7 21  1  0     0  0
  8 18  1  0     0  0
  8 19  2  0     0  0
  9 18  2  0     0  0
  9 20  1  0     0  0
 10 13  1  0     0  0
 10 19  1  0     0  0
 11 22  1  0     0  0
 11 30  1  0     0  0
 12 35  1  0     0  0
 12 36  1  0     0  0
 12 37  1  0     0  0
 14 21  2  0     0  0
 14 30  1  0     0  0
 15 24  1  0     0  0
 15 25  2  0     0  0
 16 17  1  0     0  0
 16 26  2  0     0  0
 17 27  2  0     0  0
 19 23  1  0     0  0
 20 23  2  0     0  0
 20 26  1  0     0  0
 22 28  1  0     0  0
 22 29  2  0     0  0
 23 27  1  0     0  0
 24 28  2  0     0  0
 25 29  1  0     0  0
 31 38  1  0     0  0
 32 35  1  0     0  0
 33 36  1  0     0  0
 37 38  1  0     0  0
M  END
> <standard_type>
pIC50

> <# Confs.>
25

> <canonical_smiles>
FC(C=C1)=CC=C1NC(C(S2)=CN=C2NC3=NC=NC4=C3C=C(OC)C(OCCCN5CCOCC5)=C4)=O

> <standard_relation>
=

> <Publication_ID>
nan

> <predicted_activity_value>
7.00436480540245

> <actual_activity_value>
7.309803919971486

> <Compound>
32

> <standard_units>
nM

> hash
1274051342031181450

$$$$
32_
XXILIB    08252103423D 0   0.00000     0.00000

 38 42  0     1  0            999 V2000
   -7.4871   -0.0519    1.8613 S   0  0  0  0  0  2           0  0  0
  -14.9369    0.6105    5.6035 F   0  0  0  0  0  1           0  0  0
    1.3663   -0.0000   -0.0000 O   0  0  0  0  0  2           0  0  0
   -0.0427    0.0142    2.3509 O   0  0  0  0  0  2           0  0  0
  -10.6773   -2.3336    1.6252 O   0  0  0  0  0  2           0  0  0
    3.3181   -6.6141   -0.2973 O   0  0  0  0  0  2           0  0  0
   -6.6286   -1.8221    0.2093 N   0  0  0  0  0  3           0  0  0
   -4.7528   -0.1996   -1.6014 N   0  0  0  0  0  3           0  0  0
   -2.5632   -0.1768   -2.5760 N   0  0  0  0  0  3           0  0  0
   -5.0591   -0.1069    0.7620 N   0  0  0  0  0  3           0  0  0
  -10.2596   -0.4099    2.8269 N   0  0  0  0  0  3           0  0  0
    3.4641   -3.8864    0.5238 N   0  0  2  0  0  3           0  0  0
   -6.2616   -0.7242    0.8418 C   0  0  0  0  0  4           0  0  0
   -8.5626   -1.3116    1.4290 C   0  0  0  0  0  4           0  0  0
  -13.8073    0.3510    4.9301 C   0  0  0  0  0  4           0  0  0
    0.0000    0.0000    0.0000 C   0  0  0  0  0  4           0  0  0
   -0.7452    0.0000    1.1789 C   0  0  0  0  0  4           0  0  0
   -3.9016   -0.2203   -2.6359 C   0  0  0  0  0  4           0  0  0
   -4.2071   -0.1105   -0.3625 C   0  0  0  0  0  4           0  0  0
   -2.0196   -0.1116   -1.3537 C   0  0  0  0  0  4           0  0  0
   -7.9267   -2.1539    0.5397 C   0  0  0  0  0  4           0  0  0
  -11.4650   -0.1847    3.5221 C   0  0  0  0  0  4           0  0  0
   -2.7997   -0.0822   -0.1800 C   0  0  0  0  0  4           0  0  0
  -12.7172    1.2035    5.0667 C   0  0  0  0  0  4           0  0  0
  -13.7442   -0.7662    4.1036 C   0  0  0  0  0  4           0  0  0
   -0.6347   -0.0770   -1.2425 C   0  0  0  0  0  4           0  0  0
   -2.1400   -0.0375    1.0797 C   0  0  0  0  0  4           0  0  0
  -11.5433    0.9338    4.3627 C   0  0  0  0  0  4           0  0  0
  -12.5716   -1.0351    3.3959 C   0  0  0  0  0  4           0  0  0
   -9.9107   -1.4237    1.9421 C   0  0  0  0  0  4           0  0  0
    1.9789   -1.1168    0.6448 C   0  0  0  0  0  4           0  0  0
    3.6362   -6.2800    1.0540 C   0  0  0  0  0  4           0  0  0
    2.4523   -5.6335   -0.8686 C   0  0  0  0  0  4           0  0  0
   -0.8352    0.0137    3.5353 C   0  0  0  0  0  4           0  0  0
    4.3272   -4.9199    1.1205 C   0  0  0  0  0  4           0  0  0
    3.1261   -4.2649   -0.8577 C   0  0  0  0  0  4           0  0  0
    4.0953   -2.5652    0.5521 C   0  0  0  0  0  4           0  0  0
    3.3135   -1.3830   -0.0367 C   0  0  0  0  0  4           0  0  0
  1 13  1  0     0  0
  1 14  1  0     0  0
  2 15  1  0     0  0
  3 16  1  0     0  0
  3 31  1  0     0  0
  4 17  1  0     0  0
  4 34  1  0     0  0
  5 30  2  0     0  0
  6 32  1  0     0  0
  6 33  1  0     0  0
  7 13  2  0     0  0
  7 21  1  0     0  0
  8 18  1  0     0  0
  8 19  2  0     0  0
  9 18  2  0     0  0
  9 20  1  0     0  0
 10 13  1  0     0  0
 10 19  1  0     0  0
 11 22  1  0     0  0
 11 30  1  0     0  0
 12 35  1  0     0  0
 12 36  1  0     0  0
 12 37  1  0     0  0
 14 21  2  0     0  0
 14 30  1  0     0  0
 15 24  1  0     0  0
 15 25  2  0     0  0
 16 17  1  0     0  0
 16 26  2  0     0  0
 17 27  2  0     0  0
 19 23  1  0     0  0
 20 23  2  0     0  0
 20 26  1  0     0  0
 22 28  1  0     0  0
 22 29  2  0     0  0
 23 27  1  0     0  0
 24 28  2  0     0  0
 25 29  1  0     0  0
 31 38  1  0     0  0
 32 35  1  0     0  0
 33 36  1  0     0  0
 37 38  1  0     0  0
M  END
> <standard_type>
pIC50

> <# Confs.>
25

> <canonical_smiles>
FC(C=C1)=CC=C1NC(C(S2)=CN=C2NC3=NC=NC4=C3C=C(OC)C(OCCCN5CCOCC5)=C4)=O

> <standard_relation>
=

> <Publication_ID>
nan

> <predicted_activity_value>
7.00436480540245

> <actual_activity_value>
7.309803919971486

> <Compound>
32

> <standard_units>
nM

> hash
1274051342031181450

$$$$
32_
XXILIB    08252103423D 0   0.00000     0.00000

 38 42  0     1  0            999 V2000
   -7.1709   -0.6101    2.3092 S   0  0  0  0  0  2           0  0  0
  -13.5277   -1.8779    7.5938 F   0  0  0  0  0  1           0  0  0
    1.3663    0.0000    0.0000 O   0  0  0  0  0  2           0  0  0
   -0.0427    0.0142    2.3509 O   0  0  0  0  0  2           0  0  0
  -10.5139   -2.6230    1.8491 O   0  0  0  0  0  2           0  0  0
    5.0043   -4.7783   -3.4025 O   0  0  0  0  0  2           0  0  0
   -6.8498   -1.4316   -0.1037 N   0  0  0  0  0  3           0  0  0
   -4.7528   -0.1996   -1.6014 N   0  0  0  0  0  3           0  0  0
   -2.5632   -0.1768   -2.5760 N   0  0  0  0  0  3           0  0  0
   -5.0591   -0.1069    0.7620 N   0  0  0  0  0  3           0  0  0
   -9.6816   -1.4310    3.6396 N   0  0  0  0  0  3           0  0  0
    4.0959   -3.3275   -1.1208 N   0  0  2  0  0  3           0  0  0
   -6.2616   -0.7242    0.8418 C   0  0  0  0  0  4           0  0  0
   -8.4169   -1.5692    1.6324 C   0  0  0  0  0  4           0  0  0
  -12.6005   -1.7804    6.6306 C   0  0  0  0  0  4           0  0  0
    0.0000    0.0000    0.0000 C   0  0  0  0  0  4           0  0  0
   -0.7452    0.0000    1.1789 C   0  0  0  0  0  4           0  0  0
   -3.9016   -0.2203   -2.6359 C   0  0  0  0  0  4           0  0  0
   -4.2071   -0.1105   -0.3625 C   0  0  0  0  0  4           0  0  0
   -2.0196   -0.1116   -1.3537 C   0  0  0  0  0  4           0  0  0
   -8.0660   -1.9082    0.3415 C   0  0  0  0  0  4           0  0  0
  -10.6805   -1.5708    4.6243 C   0  0  0  0  0  4           0  0  0
   -2.7997   -0.0822   -0.1800 C   0  0  0  0  0  4           0  0  0
  -11.4398   -1.0524    6.8683 C   0  0  0  0  0  4           0  0  0
  -12.8153   -2.4074    5.4075 C   0  0  0  0  0  4           0  0  0
   -0.6347   -0.0770   -1.2425 C   0  0  0  0  0  4           0  0  0
   -2.1400   -0.0375    1.0797 C   0  0  0  0  0  4           0  0  0
  -10.4772   -0.9493    5.8637 C   0  0  0  0  0  4           0  0  0
  -11.8548   -2.3020    4.4003 C   0  0  0  0  0  4           0  0  0
   -9.6229   -1.9325    2.3444 C   0  0  0  0  0  4           0  0  0
    1.9789   -1.2896    0.0000 C   0  0  0  0  0  4           0  0  0
    4.7037   -5.4585   -2.1835 C   0  0  0  0  0  4           0  0  0
    4.1763   -3.6255   -3.5538 C   0  0  0  0  0  4           0  0  0
   -0.8352    0.0137    3.5353 C   0  0  0  0  0  4           0  0  0
    4.9266   -4.5362   -0.9871 C   0  0  0  0  0  4           0  0  0
    4.4018   -2.6586   -2.3956 C   0  0  0  0  0  4           0  0  0
    4.2900   -2.4051   -0.0000 C   0  0  0  0  0  4           0  0  0
    3.4886   -1.0962    0.0000 C   0  0  0  0  0  4           0  0  0
  1 13  1  0     0  0
  1 14  1  0     0  0
  2 15  1  0     0  0
  3 16  1  0     0  0
  3 31  1  0     0  0
  4 17  1  0     0  0
  4 34  1  0     0  0
  5 30  2  0     0  0
  6 32  1  0     0  0
  6 33  1  0     0  0
  7 13  2  0     0  0
  7 21  1  0     0  0
  8 18  1  0     0  0
  8 19  2  0     0  0
  9 18  2  0     0  0
  9 20  1  0     0  0
 10 13  1  0     0  0
 10 19  1  0     0  0
 11 22  1  0     0  0
 11 30  1  0     0  0
 12 35  1  0     0  0
 12 36  1  0     0  0
 12 37  1  0     0  0
 14 21  2  0     0  0
 14 30  1  0     0  0
 15 24  1  0     0  0
 15 25  2  0     0  0
 16 17  1  0     0  0
 16 26  2  0     0  0
 17 27  2  0     0  0
 19 23  1  0     0  0
 20 23  2  0     0  0
 20 26  1  0     0  0
 22 28  1  0     0  0
 22 29  2  0     0  0
 23 27  1  0     0  0
 24 28  2  0     0  0
 25 29  1  0     0  0
 31 38  1  0     0  0
 32 35  1  0     0  0
 33 36  1  0     0  0
 37 38  1  0     0  0
M  END
> <standard_type>
pIC50

> <# Confs.>
25

> <canonical_smiles>
FC(C=C1)=CC=C1NC(C(S2)=CN=C2NC3=NC=NC4=C3C=C(OC)C(OCCCN5CCOCC5)=C4)=O

> <standard_relation>
=

> <Publication_ID>
nan

> <predicted_activity_value>
7.00436480540245

> <actual_activity_value>
7.309803919971486

> <Compound>
32

> <standard_units>
nM

> hash
1274051342031181450

$$$$
32_
XXILIB    08252103423D 0   0.00000     0.00000

 38 42  0     1  0            999 V2000
   -7.4871   -0.0519    1.8613 S   0  0  0  0  0  2           0  0  0
  -14.9369    0.6105    5.6035 F   0  0  0  0  0  1           0  0  0
    1.3663   -0.0000    0.0000 O   0  0  0  0  0  2           0  0  0
   -0.0427    0.0142    2.3509 O   0  0  0  0  0  2           0  0  0
  -10.6773   -2.3336    1.6252 O   0  0  0  0  0  2           0  0  0
    7.6563   -0.3735   -2.4434 O   0  0  0  0  0  2           0  0  0
   -6.6286   -1.8221    0.2093 N   0  0  0  0  0  3           0  0  0
   -4.7528   -0.1996   -1.6014 N   0  0  0  0  0  3           0  0  0
   -2.5632   -0.1768   -2.5760 N   0  0  0  0  0  3           0  0  0
   -5.0591   -0.1069    0.7620 N   0  0  0  0  0  3           0  0  0
  -10.2596   -0.4099    2.8269 N   0  0  0  0  0  3           0  0  0
    5.6079    0.3748   -0.6050 N   0  0  2  0  0  3           0  0  0
   -6.2616   -0.7242    0.8418 C   0  0  0  0  0  4           0  0  0
   -8.5626   -1.3116    1.4290 C   0  0  0  0  0  4           0  0  0
  -13.8073    0.3510    4.9301 C   0  0  0  0  0  4           0  0  0
    0.0000    0.0000    0.0000 C   0  0  0  0  0  4           0  0  0
   -0.7452    0.0000    1.1789 C   0  0  0  0  0  4           0  0  0
   -3.9016   -0.2203   -2.6359 C   0  0  0  0  0  4           0  0  0
   -4.2071   -0.1105   -0.3625 C   0  0  0  0  0  4           0  0  0
   -2.0196   -0.1116   -1.3537 C   0  0  0  0  0  4           0  0  0
   -7.9267   -2.1539    0.5397 C   0  0  0  0  0  4           0  0  0
  -11.4650   -0.1847    3.5221 C   0  0  0  0  0  4           0  0  0
   -2.7997   -0.0822   -0.1800 C   0  0  0  0  0  4           0  0  0
  -12.7172    1.2035    5.0667 C   0  0  0  0  0  4           0  0  0
  -13.7442   -0.7662    4.1036 C   0  0  0  0  0  4           0  0  0
   -0.6347   -0.0770   -1.2425 C   0  0  0  0  0  4           0  0  0
   -2.1400   -0.0375    1.0797 C   0  0  0  0  0  4           0  0  0
  -11.5433    0.9338    4.3627 C   0  0  0  0  0  4           0  0  0
  -12.5716   -1.0351    3.3959 C   0  0  0  0  0  4           0  0  0
   -9.9107   -1.4237    1.9421 C   0  0  0  0  0  4           0  0  0
    1.9789    1.1168    0.6448 C   0  0  0  0  0  4           0  0  0
    6.8801    0.8046   -2.6634 C   0  0  0  0  0  4           0  0  0
    7.8023   -0.6275   -1.0464 C   0  0  0  0  0  4           0  0  0
   -0.8352    0.0137    3.5353 C   0  0  0  0  0  4           0  0  0
    5.4915    0.6534   -2.0465 C   0  0  0  0  0  4           0  0  0
    6.4344   -0.8257   -0.4009 C   0  0  0  0  0  4           0  0  0
    4.2970    0.2066    0.0260 C   0  0  0  0  0  4           0  0  0
    3.3135    1.3830   -0.0367 C   0  0  0  0  0  4           0  0  0
  1 13  1  0     0  0
  1 14  1  0     0  0
  2 15  1  0     0  0
  3 16  1  0     0  0
  3 31  1  0     0  0
  4 17  1  0     0  0
  4 34  1  0     0  0
  5 30  2  0     0  0
  6 32  1  0     0  0
  6 33  1  0     0  0
  7 13  2  0     0  0
  7 21  1  0     0  0
  8 18  1  0     0  0
  8 19  2  0     0  0
  9 18  2  0     0  0
  9 20  1  0     0  0
 10 13  1  0     0  0
 10 19  1  0     0  0
 11 22  1  0     0  0
 11 30  1  0     0  0
 12 35  1  0     0  0
 12 36  1  0     0  0
 12 37  1  0     0  0
 14 21  2  0     0  0
 14 30  1  0     0  0
 15 24  1  0     0  0
 15 25  2  0     0  0
 16 17  1  0     0  0
 16 26  2  0     0  0
 17 27  2  0     0  0
 19 23  1  0     0  0
 20 23  2  0     0  0
 20 26  1  0     0  0
 22 28  1  0     0  0
 22 29  2  0     0  0
 23 27  1  0     0  0
 24 28  2  0     0  0
 25 29  1  0     0  0
 31 38  1  0     0  0
 32 35  1  0     0  0
 33 36  1  0     0  0
 37 38  1  0     0  0
M  END
> <standard_type>
pIC50

> <# Confs.>
25

> <canonical_smiles>
FC(C=C1)=CC=C1NC(C(S2)=CN=C2NC3=NC=NC4=C3C=C(OC)C(OCCCN5CCOCC5)=C4)=O

> <standard_relation>
=

> <Publication_ID>
nan

> <predicted_activity_value>
7.00436480540245

> <actual_activity_value>
7.309803919971486

> <Compound>
32

> <standard_units>
nM

> hash
1274051342031181450

$$$$
32_
XXILIB    08252103423D 0   0.00000     0.00000

 38 42  0     1  0            999 V2000
   -6.9780    0.6485    2.4513 S   0  0  0  0  0  2           0  0  0
  -12.8617    2.5447    8.0842 F   0  0  0  0  0  1           0  0  0
    1.3663   -0.0000   -0.0000 O   0  0  0  0  0  2           0  0  0
   -0.0427    0.0142    2.3509 O   0  0  0  0  0  2           0  0  0
   -9.5758    3.5951    2.5399 O   0  0  0  0  0  2           0  0  0
    6.3849   -2.5329    4.0842 O   0  0  0  0  0  2           0  0  0
   -6.3470    1.8442    0.2668 N   0  0  0  0  0  3           0  0  0
   -4.7528   -0.1996   -1.6014 N   0  0  0  0  0  3           0  0  0
   -2.5632   -0.1768   -2.5760 N   0  0  0  0  0  3           0  0  0
   -5.0591   -0.1069    0.7620 N   0  0  0  0  0  3           0  0  0
   -9.1904    1.8529    4.0012 N   0  0  0  0  0  3           0  0  0
    4.4765   -2.4992    1.9646 N   0  0  2  0  0  3           0  0  0
   -6.0272    0.8054    1.0145 C   0  0  0  0  0  4           0  0  0
   -7.8680    2.0509    2.0367 C   0  0  0  0  0  4           0  0  0
  -11.9800    2.3839    7.0874 C   0  0  0  0  0  4           0  0  0
    0.0000    0.0000    0.0000 C   0  0  0  0  0  4           0  0  0
   -0.7452    0.0000    1.1789 C   0  0  0  0  0  4           0  0  0
   -3.9016   -0.2203   -2.6359 C   0  0  0  0  0  4           0  0  0
   -4.2071   -0.1105   -0.3625 C   0  0  0  0  0  4           0  0  0
   -2.0196   -0.1116   -1.3537 C   0  0  0  0  0  4           0  0  0
   -7.3851    2.5475    0.8431 C   0  0  0  0  0  4           0  0  0
  -10.1424    2.0580    5.0204 C   0  0  0  0  0  4           0  0  0
   -2.7997   -0.0822   -0.1800 C   0  0  0  0  0  4           0  0  0
  -11.0926    1.3139    7.1237 C   0  0  0  0  0  4           0  0  0
  -11.9654    3.2915    6.0333 C   0  0  0  0  0  4           0  0  0
   -0.6347   -0.0770   -1.2425 C   0  0  0  0  0  4           0  0  0
   -2.1400   -0.0375    1.0797 C   0  0  0  0  0  4           0  0  0
  -10.1735    1.1497    6.0871 C   0  0  0  0  0  4           0  0  0
  -11.0439    3.1306    4.9973 C   0  0  0  0  0  4           0  0  0
   -8.9412    2.5855    2.8464 C   0  0  0  0  0  4           0  0  0
    1.9789   -1.1168    0.6448 C   0  0  0  0  0  4           0  0  0
    5.7225   -1.3202    3.7246 C   0  0  0  0  0  4           0  0  0
    5.5401   -3.6586    3.8459 C   0  0  0  0  0  4           0  0  0
   -0.8352    0.0137    3.5353 C   0  0  0  0  0  4           0  0  0
    5.3379   -1.3384    2.2470 C   0  0  0  0  0  4           0  0  0
    5.1671   -3.7344    2.3687 C   0  0  0  0  0  4           0  0  0
    4.0953   -2.5652    0.5521 C   0  0  0  0  0  4           0  0  0
    3.3135   -1.3830   -0.0367 C   0  0  0  0  0  4           0  0  0
  1 13  1  0     0  0
  1 14  1  0     0  0
  2 15  1  0     0  0
  3 16  1  0     0  0
  3 31  1  0     0  0
  4 17  1  0     0  0
  4 34  1  0     0  0
  5 30  2  0     0  0
  6 32  1  0     0  0
  6 33  1  0     0  0
  7 13  2  0     0  0
  7 21  1  0     0  0
  8 18  1  0     0  0
  8 19  2  0     0  0
  9 18  2  0     0  0
  9 20  1  0     0  0
 10 13  1  0     0  0
 10 19  1  0     0  0
 11 22  1  0     0  0
 11 30  1  0     0  0
 12 35  1  0     0  0
 12 36  1  0     0  0
 12 37  1  0     0  0
 14 21  2  0     0  0
 14 30  1  0     0  0
 15 24  1  0     0  0
 15 25  2  0     0  0
 16 17  1  0     0  0
 16 26  2  0     0  0
 17 27  2  0     0  0
 19 23  1  0     0  0
 20 23  2  0     0  0
 20 26  1  0     0  0
 22 28  1  0     0  0
 22 29  2  0     0  0
 23 27  1  0     0  0
 24 28  2  0     0  0
 25 29  1  0     0  0
 31 38  1  0     0  0
 32 35  1  0     0  0
 33 36  1  0     0  0
 37 38  1  0     0  0
M  END
> <standard_type>
pIC50

> <# Confs.>
25

> <canonical_smiles>
FC(C=C1)=CC=C1NC(C(S2)=CN=C2NC3=NC=NC4=C3C=C(OC)C(OCCCN5CCOCC5)=C4)=O

> <standard_relation>
=

> <Publication_ID>
nan

> <predicted_activity_value>
7.00436480540245

> <actual_activity_value>
7.309803919971486

> <Compound>
32

> <standard_units>
nM

> hash
1274051342031181450

$$$$
27_
XXILIB    08252103423D 0   0.00000     0.00000

 40 44  0     1  0            999 V2000
    1.3663   -0.0000   -0.0000 O   0  0  0  0  0  2           0  0  0
    0.2192   -0.0045    2.3367 O   0  0  0  0  0  2           0  0  0
  -10.7802   -2.5882    2.6526 O   0  0  0  0  0  2           0  0  0
    4.6913    4.7878   -6.8738 O   0  0  0  0  0  2           0  0  0
   -8.0051   -1.5949    1.5247 N   0  0  0  0  0  3           0  0  0
   -6.9401   -1.2530    0.7843 N   0  0  0  0  0  3           0  0  0
   -4.9334   -0.0309   -1.0164 N   0  0  0  0  0  3           0  0  0
   -2.8747   -0.0343   -2.2442 N   0  0  0  0  0  3           0  0  0
   -4.9601    0.0186    1.3670 N   0  0  0  0  0  3           0  0  0
  -10.9940   -0.2931    2.9535 N   0  0  0  0  0  3           0  0  0
    3.9611    1.1805   -3.2442 N   0  0  1  0  0  3           0  0  0
   -0.0000    0.0000    0.0000 C   0  0  0  0  0  4           0  0  0
   -0.6163    0.0000    1.2552 C   0  0  0  0  0  4           0  0  0
   -4.2117   -0.0486   -2.1449 C   0  0  0  0  0  4           0  0  0
   -6.1637   -0.5559    1.6281 C   0  0  0  0  0  4           0  0  0
   -4.2404    0.0192    0.1481 C   0  0  0  0  0  4           0  0  0
   -2.1858   -0.0110   -1.0957 C   0  0  0  0  0  4           0  0  0
   -7.9529   -1.1538    2.8163 C   0  0  0  0  0  4           0  0  0
  -12.2379   -0.0829    2.3296 C   0  0  0  0  0  4           0  0  0
   -2.8208    0.0077    0.1610 C   0  0  0  0  0  4           0  0  0
   -0.7936   -0.0112   -1.1541 C   0  0  0  0  0  4           0  0  0
   -2.0142    0.0052    1.3285 C   0  0  0  0  0  4           0  0  0
   -6.7623   -0.4694    2.9131 C   0  0  0  0  0  4           0  0  0
  -12.9740   -1.1265    1.7567 C   0  0  0  0  0  4           0  0  0
  -12.7461    1.2207    2.2911 C   0  0  0  0  0  4           0  0  0
  -14.2065   -0.8646    1.1537 C   0  0  0  0  0  4           0  0  0
  -13.9788    1.4773    1.6882 C   0  0  0  0  0  4           0  0  0
  -14.7079    0.4354    1.1187 C   0  0  0  0  0  4           0  0  0
  -10.3561   -1.5150    3.0794 C   0  0  0  0  0  4           0  0  0
    1.9810    0.0000   -1.2890 C   0  0  0  0  0  4           0  0  0
    4.0806    4.8077   -5.5897 C   0  0  0  0  0  4           0  0  0
   -0.4285   -0.0044    3.6064 C   0  0  0  0  0  4           0  0  0
    4.2739    0.0000   -2.4346 C   0  0  0  0  0  4           0  0  0
    4.2964    2.4266   -2.5371 C   0  0  0  0  0  4           0  0  0
    4.6693    1.1135   -4.5320 C   0  0  0  0  0  4           0  0  0
   -9.0311   -1.4157    3.8004 C   0  0  0  0  0  4           0  0  0
    4.5661    3.6350   -4.7490 C   0  0  1  0  0  4           0  0  0
    3.4948   -0.0000   -1.1183 C   0  0  0  0  0  4           0  0  0
    3.9100    3.6538   -3.3652 C   0  0  0  0  0  4           0  0  0
    4.2919    2.2899   -5.4354 C   0  0  0  0  0  4           0  0  0
  1 12  1  0     0  0
  1 30  1  0     0  0
  2 13  1  0     0  0
  2 32  1  0     0  0
  3 29  2  0     0  0
  4 31  1  0     0  0
  5  6  1  0     0  0
  5 18  1  0     0  0
  6 15  2  0     0  0
  7 14  1  0     0  0
  7 16  2  0     0  0
  8 14  2  0     0  0
  8 17  1  0     0  0
  9 15  1  0     0  0
  9 16  1  0     0  0
 10 19  1  0     0  0
 10 29  1  0     0  0
 11 33  1  0     0  0
 11 34  1  0     0  0
 11 35  1  0     0  0
 12 13  1  0     0  0
 12 21  2  0     0  0
 13 22  2  0     0  0
 15 23  1  0     0  0
 16 20  1  0     0  0
 17 20  2  0     0  0
 17 21  1  0     0  0
 18 23  2  0     0  0
 18 36  1  0     0  0
 19 24  2  0     0  0
 19 25  1  0     0  0
 20 22  1  0     0  0
 24 26  1  0     0  0
 25 27  2  0     0  0
 26 28  2  0     0  0
 27 28  1  0     0  0
 29 36  1  0     0  0
 30 38  1  0     0  0
 31 37  1  0     0  0
 33 38  1  0     0  0
 34 39  1  0     0  0
 35 40  1  0     0  0
 37 39  1  0     0  0
 37 40  1  0     0  0
M  END
> <standard_type>
pIC50

> <# Confs.>
25

> <canonical_smiles>
O=C(CC1=CC(NC2=NC=NC3=C2C=C(OC)C(OCCCN4CCC(CO)CC4)=C3)=NN1)NC5=CC=CC=C5

> <standard_relation>
=

> <Publication_ID>
nan

> <predicted_activity_value>
7.886056647693163

> <actual_activity_value>
7.7447274948966935

> <Compound>
27

> <standard_units>
nM

> hash
10396266229640643302

$$$$
27_
XXILIB    08252103423D 0   0.00000     0.00000

 40 44  0     1  0            999 V2000
    1.3663   -0.0000   -0.0000 O   0  0  0  0  0  2           0  0  0
    0.2192   -0.0045    2.3367 O   0  0  0  0  0  2           0  0  0
  -10.8476    2.4885    2.6154 O   0  0  0  0  0  2           0  0  0
    4.6913    4.7878   -6.8738 O   0  0  0  0  0  2           0  0  0
   -8.1140    1.4128    1.4619 N   0  0  0  0  0  3           0  0  0
   -7.0271    1.1159    0.7342 N   0  0  0  0  0  3           0  0  0
   -4.9334   -0.0309   -1.0164 N   0  0  0  0  0  3           0  0  0
   -2.8747   -0.0343   -2.2442 N   0  0  0  0  0  3           0  0  0
   -4.9601    0.0186    1.3670 N   0  0  0  0  0  3           0  0  0
   -9.3361    3.6629    3.9345 N   0  0  0  0  0  3           0  0  0
    3.9611    1.1805   -3.2442 N   0  0  1  0  0  3           0  0  0
    0.0000    0.0000    0.0000 C   0  0  0  0  0  4           0  0  0
   -0.6163    0.0000    1.2552 C   0  0  0  0  0  4           0  0  0
   -4.2117   -0.0486   -2.1449 C   0  0  0  0  0  4           0  0  0
   -6.2029    0.5138    1.6054 C   0  0  0  0  0  4           0  0  0
   -4.2404    0.0192    0.1481 C   0  0  0  0  0  4           0  0  0
   -2.1858   -0.0110   -1.0957 C   0  0  0  0  0  4           0  0  0
   -8.0344    1.0255    2.7693 C   0  0  0  0  0  4           0  0  0
   -9.8257    4.9703    3.7564 C   0  0  0  0  0  4           0  0  0
   -2.8208    0.0077    0.1610 C   0  0  0  0  0  4           0  0  0
   -0.7936   -0.0112   -1.1541 C   0  0  0  0  0  4           0  0  0
   -2.0142    0.0052    1.3285 C   0  0  0  0  0  4           0  0  0
   -6.7960    0.4373    2.8937 C   0  0  0  0  0  4           0  0  0
  -10.9421    5.2497    2.9597 C   0  0  0  0  0  4           0  0  0
   -9.1647    6.0180    4.4082 C   0  0  0  0  0  4           0  0  0
  -11.3905    6.5653    2.8202 C   0  0  0  0  0  4           0  0  0
   -9.6174    7.3310    4.2665 C   0  0  0  0  0  4           0  0  0
  -10.7288    7.6046    3.4719 C   0  0  0  0  0  4           0  0  0
   -9.8735    2.5209    3.3664 C   0  0  0  0  0  4           0  0  0
    1.9810    0.0000   -1.2890 C   0  0  0  0  0  4           0  0  0
    4.0806    4.8077   -5.5897 C   0  0  0  0  0  4           0  0  0
   -0.4285   -0.0044    3.6064 C   0  0  0  0  0  4           0  0  0
    4.2739    0.0000   -2.4346 C   0  0  0  0  0  4           0  0  0
    4.2964    2.4266   -2.5371 C   0  0  0  0  0  4           0  0  0
    4.6693    1.1135   -4.5320 C   0  0  0  0  0  4           0  0  0
   -9.1233    1.2650    3.7474 C   0  0  0  0  0  4           0  0  0
    4.5661    3.6350   -4.7490 C   0  0  1  0  0  4           0  0  0
    3.4948   -0.0000   -1.1183 C   0  0  0  0  0  4           0  0  0
    3.9100    3.6538   -3.3652 C   0  0  0  0  0  4           0  0  0
    4.2919    2.2899   -5.4354 C   0  0  0  0  0  4           0  0  0
  1 12  1  0     0  0
  1 30  1  0     0  0
  2 13  1  0     0  0
  2 32  1  0     0  0
  3 29  2  0     0  0
  4 31  1  0     0  0
  5  6  1  0     0  0
  5 18  1  0     0  0
  6 15  2  0     0  0
  7 14  1  0     0  0
  7 16  2  0     0  0
  8 14  2  0     0  0
  8 17  1  0     0  0
  9 15  1  0     0  0
  9 16  1  0     0  0
 10 19  1  0     0  0
 10 29  1  0     0  0
 11 33  1  0     0  0
 11 34  1  0     0  0
 11 35  1  0     0  0
 12 13  1  0     0  0
 12 21  2  0     0  0
 13 22  2  0     0  0
 15 23  1  0     0  0
 16 20  1  0     0  0
 17 20  2  0     0  0
 17 21  1  0     0  0
 18 23  2  0     0  0
 18 36  1  0     0  0
 19 24  2  0     0  0
 19 25  1  0     0  0
 20 22  1  0     0  0
 24 26  1  0     0  0
 25 27  2  0     0  0
 26 28  2  0     0  0
 27 28  1  0     0  0
 29 36  1  0     0  0
 30 38  1  0     0  0
 31 37  1  0     0  0
 33 38  1  0     0  0
 34 39  1  0     0  0
 35 40  1  0     0  0
 37 39  1  0     0  0
 37 40  1  0     0  0
M  END
> <standard_type>
pIC50

> <# Confs.>
25

> <canonical_smiles>
O=C(CC1=CC(NC2=NC=NC3=C2C=C(OC)C(OCCCN4CCC(CO)CC4)=C3)=NN1)NC5=CC=CC=C5

> <standard_relation>
=

> <Publication_ID>
nan

> <predicted_activity_value>
7.886056647693163

> <actual_activity_value>
7.7447274948966935

> <Compound>
27

> <standard_units>
nM

> hash
10396266229640643302

$$$$
27_
XXILIB    08252103423D 0   0.00000     0.00000

 40 44  0     1  0            999 V2000
    1.3663   -0.0000   -0.0000 O   0  0  0  0  0  2           0  0  0
    0.2192   -0.0045    2.3367 O   0  0  0  0  0  2           0  0  0
  -10.9374    2.2936    2.5632 O   0  0  0  0  0  2           0  0  0
    4.6913    4.7878   -6.8738 O   0  0  0  0  0  2           0  0  0
   -8.1140    1.4128    1.4619 N   0  0  0  0  0  3           0  0  0
   -7.0271    1.1159    0.7342 N   0  0  0  0  0  3           0  0  0
   -4.9334   -0.0309   -1.0164 N   0  0  0  0  0  3           0  0  0
   -2.8747   -0.0343   -2.2442 N   0  0  0  0  0  3           0  0  0
   -4.9601    0.0186    1.3670 N   0  0  0  0  0  3           0  0  0
  -11.0372    0.0088    2.9798 N   0  0  0  0  0  3           0  0  0
    3.9611    1.1805   -3.2442 N   0  0  1  0  0  3           0  0  0
    0.0000    0.0000    0.0000 C   0  0  0  0  0  4           0  0  0
   -0.6163    0.0000    1.2552 C   0  0  0  0  0  4           0  0  0
   -4.2117   -0.0486   -2.1449 C   0  0  0  0  0  4           0  0  0
   -6.2029    0.5138    1.6054 C   0  0  0  0  0  4           0  0  0
   -4.2404    0.0192    0.1481 C   0  0  0  0  0  4           0  0  0
   -2.1858   -0.0110   -1.0957 C   0  0  0  0  0  4           0  0  0
   -8.0344    1.0255    2.7693 C   0  0  0  0  0  4           0  0  0
  -12.2723   -0.2927    2.3763 C   0  0  0  0  0  4           0  0  0
   -2.8208    0.0077    0.1610 C   0  0  0  0  0  4           0  0  0
   -0.7936   -0.0112   -1.1541 C   0  0  0  0  0  4           0  0  0
   -2.0142    0.0052    1.3285 C   0  0  0  0  0  4           0  0  0
   -6.7960    0.4373    2.8937 C   0  0  0  0  0  4           0  0  0
  -13.0553    0.6815    1.7462 C   0  0  0  0  0  4           0  0  0
  -12.7191   -1.6187    2.4120 C   0  0  0  0  0  4           0  0  0
  -14.2720    0.3283    1.1576 C   0  0  0  0  0  4           0  0  0
  -13.9353   -1.9669    1.8215 C   0  0  0  0  0  4           0  0  0
  -14.7118   -0.9937    1.1958 C   0  0  0  0  0  4           0  0  0
  -10.4534    1.2628    3.0290 C   0  0  0  0  0  4           0  0  0
    1.9810    0.0000   -1.2890 C   0  0  0  0  0  4           0  0  0
    4.0806    4.8077   -5.5897 C   0  0  0  0  0  4           0  0  0
   -0.4285   -0.0044    3.6064 C   0  0  0  0  0  4           0  0  0
    4.2739    0.0000   -2.4346 C   0  0  0  0  0  4           0  0  0
    4.2964    2.4266   -2.5371 C   0  0  0  0  0  4           0  0  0
    4.6693    1.1135   -4.5320 C   0  0  0  0  0  4           0  0  0
   -9.1233    1.2650    3.7474 C   0  0  0  0  0  4           0  0  0
    4.5661    3.6350   -4.7490 C   0  0  1  0  0  4           0  0  0
    3.4948   -0.0000   -1.1183 C   0  0  0  0  0  4           0  0  0
    3.9100    3.6538   -3.3652 C   0  0  0  0  0  4           0  0  0
    4.2919    2.2899   -5.4354 C   0  0  0  0  0  4           0  0  0
  1 12  1  0     0  0
  1 30  1  0     0  0
  2 13  1  0     0  0
  2 32  1  0     0  0
  3 29  2  0     0  0
  4 31  1  0     0  0
  5  6  1  0     0  0
  5 18  1  0     0  0
  6 15  2  0     0  0
  7 14  1  0     0  0
  7 16  2  0     0  0
  8 14  2  0     0  0
  8 17  1  0     0  0
  9 15  1  0     0  0
  9 16  1  0     0  0
 10 19  1  0     0  0
 10 29  1  0     0  0
 11 33  1  0     0  0
 11 34  1  0     0  0
 11 35  1  0     0  0
 12 13  1  0     0  0
 12 21  2  0     0  0
 13 22  2  0     0  0
 15 23  1  0     0  0
 16 20  1  0     0  0
 17 20  2  0     0  0
 17 21  1  0     0  0
 18 23  2  0     0  0
 18 36  1  0     0  0
 19 24  2  0     0  0
 19 25  1  0     0  0
 20 22  1  0     0  0
 24 26  1  0     0  0
 25 27  2  0     0  0
 26 28  2  0     0  0
 27 28  1  0     0  0
 29 36  1  0     0  0
 30 38  1  0     0  0
 31 37  1  0     0  0
 33 38  1  0     0  0
 34 39  1  0     0  0
 35 40  1  0     0  0
 37 39  1  0     0  0
 37 40  1  0     0  0
M  END
> <standard_type>
pIC50

> <# Confs.>
25

> <canonical_smiles>
O=C(CC1=CC(NC2=NC=NC3=C2C=C(OC)C(OCCCN4CCC(CO)CC4)=C3)=NN1)NC5=CC=CC=C5

> <standard_relation>
=

> <Publication_ID>
nan

> <predicted_activity_value>
7.886056647693163

> <actual_activity_value>
7.7447274948966935

> <Compound>
27

> <standard_units>
nM

> hash
10396266229640643302

$$$$
27_
XXILIB    08252103423D 0   0.00000     0.00000

 40 44  0     1  0            999 V2000
    1.3663   -0.0000   -0.0000 O   0  0  0  0  0  2           0  0  0
    0.2192   -0.0045    2.3367 O   0  0  0  0  0  2           0  0  0
  -10.6799   -2.7756    2.7125 O   0  0  0  0  0  2           0  0  0
    4.6913    4.7878   -6.8738 O   0  0  0  0  0  2           0  0  0
   -8.0051   -1.5949    1.5247 N   0  0  0  0  0  3           0  0  0
   -6.9401   -1.2530    0.7843 N   0  0  0  0  0  3           0  0  0
   -4.9334   -0.0309   -1.0164 N   0  0  0  0  0  3           0  0  0
   -2.8747   -0.0343   -2.2442 N   0  0  0  0  0  3           0  0  0
   -4.9601    0.0186    1.3670 N   0  0  0  0  0  3           0  0  0
   -9.1305   -3.8091    4.1036 N   0  0  0  0  0  3           0  0  0
    3.9611    1.1805   -3.2442 N   0  0  1  0  0  3           0  0  0
   -0.0000    0.0000    0.0000 C   0  0  0  0  0  4           0  0  0
   -0.6163    0.0000    1.2552 C   0  0  0  0  0  4           0  0  0
   -4.2117   -0.0486   -2.1449 C   0  0  0  0  0  4           0  0  0
   -6.1637   -0.5559    1.6281 C   0  0  0  0  0  4           0  0  0
   -4.2404    0.0192    0.1481 C   0  0  0  0  0  4           0  0  0
   -2.1858   -0.0110   -1.0957 C   0  0  0  0  0  4           0  0  0
   -7.9529   -1.1538    2.8163 C   0  0  0  0  0  4           0  0  0
   -9.5505   -5.1467    3.9808 C   0  0  0  0  0  4           0  0  0
   -2.8208    0.0077    0.1610 C   0  0  0  0  0  4           0  0  0
   -0.7936   -0.0112   -1.1541 C   0  0  0  0  0  4           0  0  0
   -2.0142    0.0052    1.3285 C   0  0  0  0  0  4           0  0  0
   -6.7623   -0.4694    2.9131 C   0  0  0  0  0  4           0  0  0
  -10.6315   -5.5209    3.1741 C   0  0  0  0  0  4           0  0  0
   -8.8508   -6.1272    4.6937 C   0  0  0  0  0  4           0  0  0
  -11.0046   -6.8640    3.0831 C   0  0  0  0  0  4           0  0  0
   -9.2270   -7.4683    4.5986 C   0  0  0  0  0  4           0  0  0
  -10.3040   -7.8362    3.7948 C   0  0  0  0  0  4           0  0  0
   -9.7089   -2.7250    3.4665 C   0  0  0  0  0  4           0  0  0
    1.9810    0.0000   -1.2890 C   0  0  0  0  0  4           0  0  0
    4.0806    4.8077   -5.5897 C   0  0  0  0  0  4           0  0  0
   -0.4285   -0.0044    3.6064 C   0  0  0  0  0  4           0  0  0
    4.2739    0.0000   -2.4346 C   0  0  0  0  0  4           0  0  0
    4.2964    2.4266   -2.5371 C   0  0  0  0  0  4           0  0  0
    4.6693    1.1135   -4.5320 C   0  0  0  0  0  4           0  0  0
   -9.0311   -1.4157    3.8004 C   0  0  0  0  0  4           0  0  0
    4.5661    3.6350   -4.7490 C   0  0  1  0  0  4           0  0  0
    3.4948   -0.0000   -1.1183 C   0  0  0  0  0  4           0  0  0
    3.9100    3.6538   -3.3652 C   0  0  0  0  0  4           0  0  0
    4.2919    2.2899   -5.4354 C   0  0  0  0  0  4           0  0  0
  1 12  1  0     0  0
  1 30  1  0     0  0
  2 13  1  0     0  0
  2 32  1  0     0  0
  3 29  2  0     0  0
  4 31  1  0     0  0
  5  6  1  0     0  0
  5 18  1  0     0  0
  6 15  2  0     0  0
  7 14  1  0     0  0
  7 16  2  0     0  0
  8 14  2  0     0  0
  8 17  1  0     0  0
  9 15  1  0     0  0
  9 16  1  0     0  0
 10 19  1  0     0  0
 10 29  1  0     0  0
 11 33  1  0     0  0
 11 34  1  0     0  0
 11 35  1  0     0  0
 12 13  1  0     0  0
 12 21  2  0     0  0
 13 22  2  0     0  0
 15 23  1  0     0  0
 16 20  1  0     0  0
 17 20  2  0     0  0
 17 21  1  0     0  0
 18 23  2  0     0  0
 18 36  1  0     0  0
 19 24  2  0     0  0
 19 25  1  0     0  0
 20 22  1  0     0  0
 24 26  1  0     0  0
 25 27  2  0     0  0
 26 28  2  0     0  0
 27 28  1  0     0  0
 29 36  1  0     0  0
 30 38  1  0     0  0
 31 37  1  0     0  0
 33 38  1  0     0  0
 34 39  1  0     0  0
 35 40  1  0     0  0
 37 39  1  0     0  0
 37 40  1  0     0  0
M  END
> <standard_type>
pIC50

> <# Confs.>
25

> <canonical_smiles>
O=C(CC1=CC(NC2=NC=NC3=C2C=C(OC)C(OCCCN4CCC(CO)CC4)=C3)=NN1)NC5=CC=CC=C5

> <standard_relation>
=

> <Publication_ID>
nan

> <predicted_activity_value>
7.886056647693163

> <actual_activity_value>
7.7447274948966935

> <Compound>
27

> <standard_units>
nM

> hash
10396266229640643302

$$$$
27_
XXILIB    08252103423D 0   0.00000     0.00000

 40 44  0     1  0            999 V2000
    1.3663    0.0000   -0.0000 O   0  0  0  0  0  2           0  0  0
    0.2192   -0.0045    2.3367 O   0  0  0  0  0  2           0  0  0
  -10.7802   -2.5882    2.6526 O   0  0  0  0  0  2           0  0  0
    2.5253    7.5626   -4.7635 O   0  0  0  0  0  2           0  0  0
   -8.0051   -1.5949    1.5247 N   0  0  0  0  0  3           0  0  0
   -6.9401   -1.2530    0.7843 N   0  0  0  0  0  3           0  0  0
   -4.9334   -0.0309   -1.0164 N   0  0  0  0  0  3           0  0  0
   -2.8747   -0.0343   -2.2442 N   0  0  0  0  0  3           0  0  0
   -4.9601    0.0186    1.3670 N   0  0  0  0  0  3           0  0  0
  -10.9940   -0.2931    2.9535 N   0  0  0  0  0  3           0  0  0
    3.3140    3.0713   -2.3292 N   0  0  1  0  0  3           0  0  0
   -0.0000    0.0000    0.0000 C   0  0  0  0  0  4           0  0  0
   -0.6163    0.0000    1.2552 C   0  0  0  0  0  4           0  0  0
   -4.2117   -0.0486   -2.1449 C   0  0  0  0  0  4           0  0  0
   -6.1637   -0.5559    1.6281 C   0  0  0  0  0  4           0  0  0
   -4.2404    0.0192    0.1481 C   0  0  0  0  0  4           0  0  0
   -2.1858   -0.0110   -1.0957 C   0  0  0  0  0  4           0  0  0
   -7.9529   -1.1538    2.8163 C   0  0  0  0  0  4           0  0  0
  -12.2379   -0.0829    2.3296 C   0  0  0  0  0  4           0  0  0
   -2.8208    0.0077    0.1610 C   0  0  0  0  0  4           0  0  0
   -0.7936   -0.0112   -1.1541 C   0  0  0  0  0  4           0  0  0
   -2.0142    0.0052    1.3285 C   0  0  0  0  0  4           0  0  0
   -6.7623   -0.4694    2.9131 C   0  0  0  0  0  4           0  0  0
  -12.9740   -1.1265    1.7567 C   0  0  0  0  0  4           0  0  0
  -12.7461    1.2207    2.2911 C   0  0  0  0  0  4           0  0  0
  -14.2065   -0.8646    1.1537 C   0  0  0  0  0  4           0  0  0
  -13.9788    1.4773    1.6882 C   0  0  0  0  0  4           0  0  0
  -14.7079    0.4354    1.1187 C   0  0  0  0  0  4           0  0  0
  -10.3561   -1.5150    3.0794 C   0  0  0  0  0  4           0  0  0
    1.9810    0.6445   -1.1163 C   0  0  0  0  0  4           0  0  0
    1.9055    6.9384   -3.6463 C   0  0  0  0  0  4           0  0  0
   -0.4285   -0.0044    3.6064 C   0  0  0  0  0  4           0  0  0
    4.0832    1.9454   -1.7930 C   0  0  0  0  0  4           0  0  0
    3.0135    4.0668   -1.2880 C   0  0  0  0  0  4           0  0  0
    4.0422    3.6970   -3.4440 C   0  0  0  0  0  4           0  0  0
   -9.0311   -1.4157    3.8004 C   0  0  0  0  0  4           0  0  0
    2.8235    5.8818   -3.0474 C   0  0  1  0  0  4           0  0  0
    3.3207    1.2242   -0.6804 C   0  0  0  0  0  4           0  0  0
    2.1585    5.2076   -1.8436 C   0  0  0  0  0  4           0  0  0
    3.2220    4.8206   -4.0822 C   0  0  0  0  0  4           0  0  0
  1 12  1  0     0  0
  1 30  1  0     0  0
  2 13  1  0     0  0
  2 32  1  0     0  0
  3 29  2  0     0  0
  4 31  1  0     0  0
  5  6  1  0     0  0
  5 18  1  0     0  0
  6 15  2  0     0  0
  7 14  1  0     0  0
  7 16  2  0     0  0
  8 14  2  0     0  0
  8 17  1  0     0  0
  9 15  1  0     0  0
  9 16  1  0     0  0
 10 19  1  0     0  0
 10 29  1  0     0  0
 11 33  1  0     0  0
 11 34  1  0     0  0
 11 35  1  0     0  0
 12 13  1  0     0  0
 12 21  2  0     0  0
 13 22  2  0     0  0
 15 23  1  0     0  0
 16 20  1  0     0  0
 17 20  2  0     0  0
 17 21  1  0     0  0
 18 23  2  0     0  0
 18 36  1  0     0  0
 19 24  2  0     0  0
 19 25  1  0     0  0
 20 22  1  0     0  0
 24 26  1  0     0  0
 25 27  2  0     0  0
 26 28  2  0     0  0
 27 28  1  0     0  0
 29 36  1  0     0  0
 30 38  1  0     0  0
 31 37  1  0     0  0
 33 38  1  0     0  0
 34 39  1  0     0  0
 35 40  1  0     0  0
 37 39  1  0     0  0
 37 40  1  0     0  0
M  END
> <standard_type>
pIC50

> <# Confs.>
25

> <canonical_smiles>
O=C(CC1=CC(NC2=NC=NC3=C2C=C(OC)C(OCCCN4CCC(CO)CC4)=C3)=NN1)NC5=CC=CC=C5

> <standard_relation>
=

> <Publication_ID>
nan

> <predicted_activity_value>
7.886056647693163

> <actual_activity_value>
7.7447274948966935

> <Compound>
27

> <standard_units>
nM

> hash
10396266229640643302

$$$$
27_
XXILIB    08252103423D 0   0.00000     0.00000

 40 44  0     1  0            999 V2000
    1.3663   -0.0000   -0.0000 O   0  0  0  0  0  2           0  0  0
    0.2192   -0.0045    2.3367 O   0  0  0  0  0  2           0  0  0
  -10.7802   -2.5882    2.6526 O   0  0  0  0  0  2           0  0  0
    4.6913    0.7094   -8.3468 O   0  0  0  0  0  2           0  0  0
   -8.0051   -1.5949    1.5247 N   0  0  0  0  0  3           0  0  0
   -6.9401   -1.2530    0.7843 N   0  0  0  0  0  3           0  0  0
   -4.9334   -0.0309   -1.0164 N   0  0  0  0  0  3           0  0  0
   -2.8747   -0.0343   -2.2442 N   0  0  0  0  0  3           0  0  0
   -4.9601    0.0186    1.3670 N   0  0  0  0  0  3           0  0  0
  -10.9940   -0.2931    2.9535 N   0  0  0  0  0  3           0  0  0
    3.9611   -0.5998   -3.3998 N   0  0  1  0  0  3           0  0  0
   -0.0000    0.0000    0.0000 C   0  0  0  0  0  4           0  0  0
   -0.6163    0.0000    1.2552 C   0  0  0  0  0  4           0  0  0
   -4.2117   -0.0486   -2.1449 C   0  0  0  0  0  4           0  0  0
   -6.1637   -0.5559    1.6281 C   0  0  0  0  0  4           0  0  0
   -4.2404    0.0192    0.1481 C   0  0  0  0  0  4           0  0  0
   -2.1858   -0.0110   -1.0957 C   0  0  0  0  0  4           0  0  0
   -7.9529   -1.1538    2.8163 C   0  0  0  0  0  4           0  0  0
  -12.2379   -0.0829    2.3296 C   0  0  0  0  0  4           0  0  0
   -2.8208    0.0077    0.1610 C   0  0  0  0  0  4           0  0  0
   -0.7936   -0.0112   -1.1541 C   0  0  0  0  0  4           0  0  0
   -2.0142    0.0052    1.3285 C   0  0  0  0  0  4           0  0  0
   -6.7623   -0.4694    2.9131 C   0  0  0  0  0  4           0  0  0
  -12.9740   -1.1265    1.7567 C   0  0  0  0  0  4           0  0  0
  -12.7461    1.2207    2.2911 C   0  0  0  0  0  4           0  0  0
  -14.2065   -0.8646    1.1537 C   0  0  0  0  0  4           0  0  0
  -13.9788    1.4773    1.6882 C   0  0  0  0  0  4           0  0  0
  -14.7079    0.4354    1.1187 C   0  0  0  0  0  4           0  0  0
  -10.3561   -1.5150    3.0794 C   0  0  0  0  0  4           0  0  0
    1.9810   -0.6445   -1.1163 C   0  0  0  0  0  4           0  0  0
    4.0806    1.3688   -7.2447 C   0  0  0  0  0  4           0  0  0
   -0.4285   -0.0044    3.6064 C   0  0  0  0  0  4           0  0  0
    4.2739   -1.2173   -2.1084 C   0  0  0  0  0  4           0  0  0
    4.2964    0.8330   -3.4105 C   0  0  0  0  0  4           0  0  0
    4.6693   -1.3017   -4.4816 C   0  0  0  0  0  4           0  0  0
   -9.0311   -1.4157    3.8004 C   0  0  0  0  0  4           0  0  0
    4.5661    0.7735   -5.9303 C   0  0  1  0  0  4           0  0  0
    3.4948   -0.5592   -0.9685 C   0  0  0  0  0  4           0  0  0
    3.9100    1.4817   -4.7412 C   0  0  0  0  0  4           0  0  0
    4.2919   -0.7346   -5.8522 C   0  0  0  0  0  4           0  0  0
  1 12  1  0     0  0
  1 30  1  0     0  0
  2 13  1  0     0  0
  2 32  1  0     0  0
  3 29  2  0     0  0
  4 31  1  0     0  0
  5  6  1  0     0  0
  5 18  1  0     0  0
  6 15  2  0     0  0
  7 14  1  0     0  0
  7 16  2  0     0  0
  8 14  2  0     0  0
  8 17  1  0     0  0
  9 15  1  0     0  0
  9 16  1  0     0  0
 10 19  1  0     0  0
 10 29  1  0     0  0
 11 33  1  0     0  0
 11 34  1  0     0  0
 11 35  1  0     0  0
 12 13  1  0     0  0
 12 21  2  0     0  0
 13 22  2  0     0  0
 15 23  1  0     0  0
 16 20  1  0     0  0
 17 20  2  0     0  0
 17 21  1  0     0  0
 18 23  2  0     0  0
 18 36  1  0     0  0
 19 24  2  0     0  0
 19 25  1  0     0  0
 20 22  1  0     0  0
 24 26  1  0     0  0
 25 27  2  0     0  0
 26 28  2  0     0  0
 27 28  1  0     0  0
 29 36  1  0     0  0
 30 38  1  0     0  0
 31 37  1  0     0  0
 33 38  1  0     0  0
 34 39  1  0     0  0
 35 40  1  0     0  0
 37 39  1  0     0  0
 37 40  1  0     0  0
M  END
> <standard_type>
pIC50

> <# Confs.>
25

> <canonical_smiles>
O=C(CC1=CC(NC2=NC=NC3=C2C=C(OC)C(OCCCN4CCC(CO)CC4)=C3)=NN1)NC5=CC=CC=C5

> <standard_relation>
=

> <Publication_ID>
nan

> <predicted_activity_value>
7.886056647693163

> <actual_activity_value>
7.7447274948966935

> <Compound>
27

> <standard_units>
nM

> hash
10396266229640643302

$$$$
27_
XXILIB    08252103423D 0   0.00000     0.00000

 40 44  0     1  0            999 V2000
    1.3663    0.0000    0.0000 O   0  0  0  0  0  2           0  0  0
    0.2192   -0.0045    2.3367 O   0  0  0  0  0  2           0  0  0
  -10.7802   -2.5882    2.6526 O   0  0  0  0  0  2           0  0  0
    6.8469    0.6495   -7.1252 O   0  0  0  0  0  2           0  0  0
   -8.0051   -1.5949    1.5247 N   0  0  0  0  0  3           0  0  0
   -6.9401   -1.2530    0.7843 N   0  0  0  0  0  3           0  0  0
   -4.9334   -0.0309   -1.0164 N   0  0  0  0  0  3           0  0  0
   -2.8747   -0.0343   -2.2442 N   0  0  0  0  0  3           0  0  0
   -4.9601    0.0186    1.3670 N   0  0  0  0  0  3           0  0  0
  -10.9940   -0.2931    2.9535 N   0  0  0  0  0  3           0  0  0
    4.3795   -1.0465   -2.9115 N   0  0  1  0  0  3           0  0  0
   -0.0000    0.0000    0.0000 C   0  0  0  0  0  4           0  0  0
   -0.6163    0.0000    1.2552 C   0  0  0  0  0  4           0  0  0
   -4.2117   -0.0486   -2.1449 C   0  0  0  0  0  4           0  0  0
   -6.1637   -0.5559    1.6281 C   0  0  0  0  0  4           0  0  0
   -4.2404    0.0192    0.1481 C   0  0  0  0  0  4           0  0  0
   -2.1858   -0.0110   -1.0957 C   0  0  0  0  0  4           0  0  0
   -7.9529   -1.1538    2.8163 C   0  0  0  0  0  4           0  0  0
  -12.2379   -0.0829    2.3296 C   0  0  0  0  0  4           0  0  0
   -2.8208    0.0077    0.1610 C   0  0  0  0  0  4           0  0  0
   -0.7936   -0.0112   -1.1541 C   0  0  0  0  0  4           0  0  0
   -2.0142    0.0052    1.3285 C   0  0  0  0  0  4           0  0  0
   -6.7623   -0.4694    2.9131 C   0  0  0  0  0  4           0  0  0
  -12.9740   -1.1265    1.7567 C   0  0  0  0  0  4           0  0  0
  -12.7461    1.2207    2.2911 C   0  0  0  0  0  4           0  0  0
  -14.2065   -0.8646    1.1537 C   0  0  0  0  0  4           0  0  0
  -13.9788    1.4773    1.6882 C   0  0  0  0  0  4           0  0  0
  -14.7079    0.4354    1.1187 C   0  0  0  0  0  4           0  0  0
  -10.3561   -1.5150    3.0794 C   0  0  0  0  0  4           0  0  0
    1.9810   -0.6445   -1.1163 C   0  0  0  0  0  4           0  0  0
    6.2451    1.3079   -6.0178 C   0  0  0  0  0  4           0  0  0
   -0.4285   -0.0044    3.6064 C   0  0  0  0  0  4           0  0  0
    4.0832   -1.9454   -1.7930 C   0  0  0  0  0  4           0  0  0
    5.2038    0.0954   -2.4850 C   0  0  0  0  0  4           0  0  0
    5.0472   -1.7871   -3.9933 C   0  0  0  0  0  4           0  0  0
   -9.0311   -1.4157    3.8004 C   0  0  0  0  0  4           0  0  0
    6.1046    0.3530   -4.8404 C   0  0  1  0  0  4           0  0  0
    3.3207   -1.2242   -0.6804 C   0  0  0  0  0  4           0  0  0
    5.4565    1.0595   -3.6459 C   0  0  0  0  0  4           0  0  0
    5.2889   -0.8930   -5.2117 C   0  0  0  0  0  4           0  0  0
  1 12  1  0     0  0
  1 30  1  0     0  0
  2 13  1  0     0  0
  2 32  1  0     0  0
  3 29  2  0     0  0
  4 31  1  0     0  0
  5  6  1  0     0  0
  5 18  1  0     0  0
  6 15  2  0     0  0
  7 14  1  0     0  0
  7 16  2  0     0  0
  8 14  2  0     0  0
  8 17  1  0     0  0
  9 15  1  0     0  0
  9 16  1  0     0  0
 10 19  1  0     0  0
 10 29  1  0     0  0
 11 33  1  0     0  0
 11 34  1  0     0  0
 11 35  1  0     0  0
 12 13  1  0     0  0
 12 21  2  0     0  0
 13 22  2  0     0  0
 15 23  1  0     0  0
 16 20  1  0     0  0
 17 20  2  0     0  0
 17 21  1  0     0  0
 18 23  2  0     0  0
 18 36  1  0     0  0
 19 24  2  0     0  0
 19 25  1  0     0  0
 20 22  1  0     0  0
 24 26  1  0     0  0
 25 27  2  0     0  0
 26 28  2  0     0  0
 27 28  1  0     0  0
 29 36  1  0     0  0
 30 38  1  0     0  0
 31 37  1  0     0  0
 33 38  1  0     0  0
 34 39  1  0     0  0
 35 40  1  0     0  0
 37 39  1  0     0  0
 37 40  1  0     0  0
M  END
> <standard_type>
pIC50

> <# Confs.>
25

> <canonical_smiles>
O=C(CC1=CC(NC2=NC=NC3=C2C=C(OC)C(OCCCN4CCC(CO)CC4)=C3)=NN1)NC5=CC=CC=C5

> <standard_relation>
=

> <Publication_ID>
nan

> <predicted_activity_value>
7.886056647693163

> <actual_activity_value>
7.7447274948966935

> <Compound>
27

> <standard_units>
nM

> hash
10396266229640643302

$$$$
27_
XXILIB    08252103423D 0   0.00000     0.00000

 40 44  0     1  0            999 V2000
    1.3663    0.0000    0.0000 O   0  0  0  0  0  2           0  0  0
    0.2192   -0.0045    2.3367 O   0  0  0  0  0  2           0  0  0
  -10.7802   -2.5882    2.6526 O   0  0  0  0  0  2           0  0  0
   10.1404   -2.2121    1.7840 O   0  0  0  0  0  2           0  0  0
   -8.0051   -1.5949    1.5247 N   0  0  0  0  0  3           0  0  0
   -6.9401   -1.2530    0.7843 N   0  0  0  0  0  3           0  0  0
   -4.9334   -0.0309   -1.0164 N   0  0  0  0  0  3           0  0  0
   -2.8747   -0.0343   -2.2442 N   0  0  0  0  0  3           0  0  0
   -4.9601    0.0186    1.3670 N   0  0  0  0  0  3           0  0  0
  -10.9940   -0.2931    2.9535 N   0  0  0  0  0  3           0  0  0
    5.4977   -1.1492   -0.2249 N   0  0  1  0  0  3           0  0  0
   -0.0000    0.0000    0.0000 C   0  0  0  0  0  4           0  0  0
   -0.6163    0.0000    1.2552 C   0  0  0  0  0  4           0  0  0
   -4.2117   -0.0486   -2.1449 C   0  0  0  0  0  4           0  0  0
   -6.1637   -0.5559    1.6281 C   0  0  0  0  0  4           0  0  0
   -4.2404    0.0192    0.1481 C   0  0  0  0  0  4           0  0  0
   -2.1858   -0.0110   -1.0957 C   0  0  0  0  0  4           0  0  0
   -7.9529   -1.1538    2.8163 C   0  0  0  0  0  4           0  0  0
  -12.2379   -0.0829    2.3296 C   0  0  0  0  0  4           0  0  0
   -2.8208    0.0077    0.1610 C   0  0  0  0  0  4           0  0  0
   -0.7936   -0.0112   -1.1541 C   0  0  0  0  0  4           0  0  0
   -2.0142    0.0052    1.3285 C   0  0  0  0  0  4           0  0  0
   -6.7623   -0.4694    2.9131 C   0  0  0  0  0  4           0  0  0
  -12.9740   -1.1265    1.7567 C   0  0  0  0  0  4           0  0  0
  -12.7461    1.2207    2.2911 C   0  0  0  0  0  4           0  0  0
  -14.2065   -0.8646    1.1537 C   0  0  0  0  0  4           0  0  0
  -13.9788    1.4773    1.6882 C   0  0  0  0  0  4           0  0  0
  -14.7079    0.4354    1.1187 C   0  0  0  0  0  4           0  0  0
  -10.3561   -1.5150    3.0794 C   0  0  0  0  0  4           0  0  0
    1.9810    0.0000   -1.2890 C   0  0  0  0  0  4           0  0  0
    9.5807   -1.0495    1.1863 C   0  0  0  0  0  4           0  0  0
   -0.4285   -0.0044    3.6064 C   0  0  0  0  0  4           0  0  0
    4.0394   -1.2083   -0.3549 C   0  0  0  0  0  4           0  0  0
    5.9284    0.0569    0.4998 C   0  0  0  0  0  4           0  0  0
    5.9955   -2.3589    0.4484 C   0  0  0  0  0  4           0  0  0
   -9.0311   -1.4157    3.8004 C   0  0  0  0  0  4           0  0  0
    8.0599   -1.1106    1.2203 C   0  0  1  0  0  4           0  0  0
    3.4948   -0.0000   -1.1183 C   0  0  0  0  0  4           0  0  0
    7.4542    0.1405    0.5772 C   0  0  0  0  0  4           0  0  0
    7.5244   -2.3662    0.5186 C   0  0  0  0  0  4           0  0  0
  1 12  1  0     0  0
  1 30  1  0     0  0
  2 13  1  0     0  0
  2 32  1  0     0  0
  3 29  2  0     0  0
  4 31  1  0     0  0
  5  6  1  0     0  0
  5 18  1  0     0  0
  6 15  2  0     0  0
  7 14  1  0     0  0
  7 16  2  0     0  0
  8 14  2  0     0  0
  8 17  1  0     0  0
  9 15  1  0     0  0
  9 16  1  0     0  0
 10 19  1  0     0  0
 10 29  1  0     0  0
 11 33  1  0     0  0
 11 34  1  0     0  0
 11 35  1  0     0  0
 12 13  1  0     0  0
 12 21  2  0     0  0
 13 22  2  0     0  0
 15 23  1  0     0  0
 16 20  1  0     0  0
 17 20  2  0     0  0
 17 21  1  0     0  0
 18 23  2  0     0  0
 18 36  1  0     0  0
 19 24  2  0     0  0
 19 25  1  0     0  0
 20 22  1  0     0  0
 24 26  1  0     0  0
 25 27  2  0     0  0
 26 28  2  0     0  0
 27 28  1  0     0  0
 29 36  1  0     0  0
 30 38  1  0     0  0
 31 37  1  0     0  0
 33 38  1  0     0  0
 34 39  1  0     0  0
 35 40  1  0     0  0
 37 39  1  0     0  0
 37 40  1  0     0  0
M  END
> <standard_type>
pIC50

> <# Confs.>
25

> <canonical_smiles>
O=C(CC1=CC(NC2=NC=NC3=C2C=C(OC)C(OCCCN4CCC(CO)CC4)=C3)=NN1)NC5=CC=CC=C5

> <standard_relation>
=

> <Publication_ID>
nan

> <predicted_activity_value>
7.886056647693163

> <actual_activity_value>
7.7447274948966935

> <Compound>
27

> <standard_units>
nM

> hash
10396266229640643302

$$$$
27_
XXILIB    08252103423D 0   0.00000     0.00000

 40 44  0     1  0            999 V2000
    1.3663    0.0000   -0.0000 O   0  0  0  0  0  2           0  0  0
    0.2192   -0.0045    2.3367 O   0  0  0  0  0  2           0  0  0
  -10.8476    2.4885    2.6154 O   0  0  0  0  0  2           0  0  0
    2.5253    7.5626   -4.7635 O   0  0  0  0  0  2           0  0  0
   -8.1140    1.4128    1.4619 N   0  0  0  0  0  3           0  0  0
   -7.0271    1.1159    0.7342 N   0  0  0  0  0  3           0  0  0
   -4.9334   -0.0309   -1.0164 N   0  0  0  0  0  3           0  0  0
   -2.8747   -0.0343   -2.2442 N   0  0  0  0  0  3           0  0  0
   -4.9601    0.0186    1.3670 N   0  0  0  0  0  3           0  0  0
   -9.3361    3.6629    3.9345 N   0  0  0  0  0  3           0  0  0
    3.3140    3.0713   -2.3292 N   0  0  1  0  0  3           0  0  0
    0.0000    0.0000    0.0000 C   0  0  0  0  0  4           0  0  0
   -0.6163    0.0000    1.2552 C   0  0  0  0  0  4           0  0  0
   -4.2117   -0.0486   -2.1449 C   0  0  0  0  0  4           0  0  0
   -6.2029    0.5138    1.6054 C   0  0  0  0  0  4           0  0  0
   -4.2404    0.0192    0.1481 C   0  0  0  0  0  4           0  0  0
   -2.1858   -0.0110   -1.0957 C   0  0  0  0  0  4           0  0  0
   -8.0344    1.0255    2.7693 C   0  0  0  0  0  4           0  0  0
   -9.8257    4.9703    3.7564 C   0  0  0  0  0  4           0  0  0
   -2.8208    0.0077    0.1610 C   0  0  0  0  0  4           0  0  0
   -0.7936   -0.0112   -1.1541 C   0  0  0  0  0  4           0  0  0
   -2.0142    0.0052    1.3285 C   0  0  0  0  0  4           0  0  0
   -6.7960    0.4373    2.8937 C   0  0  0  0  0  4           0  0  0
  -10.9421    5.2497    2.9597 C   0  0  0  0  0  4           0  0  0
   -9.1647    6.0180    4.4082 C   0  0  0  0  0  4           0  0  0
  -11.3905    6.5653    2.8202 C   0  0  0  0  0  4           0  0  0
   -9.6174    7.3310    4.2665 C   0  0  0  0  0  4           0  0  0
  -10.7288    7.6046    3.4719 C   0  0  0  0  0  4           0  0  0
   -9.8735    2.5209    3.3664 C   0  0  0  0  0  4           0  0  0
    1.9810    0.6445   -1.1163 C   0  0  0  0  0  4           0  0  0
    1.9055    6.9384   -3.6463 C   0  0  0  0  0  4           0  0  0
   -0.4285   -0.0044    3.6064 C   0  0  0  0  0  4           0  0  0
    4.0832    1.9454   -1.7930 C   0  0  0  0  0  4           0  0  0
    3.0135    4.0668   -1.2880 C   0  0  0  0  0  4           0  0  0
    4.0422    3.6970   -3.4440 C   0  0  0  0  0  4           0  0  0
   -9.1233    1.2650    3.7474 C   0  0  0  0  0  4           0  0  0
    2.8235    5.8818   -3.0474 C   0  0  1  0  0  4           0  0  0
    3.3207    1.2242   -0.6804 C   0  0  0  0  0  4           0  0  0
    2.1585    5.2076   -1.8436 C   0  0  0  0  0  4           0  0  0
    3.2220    4.8206   -4.0822 C   0  0  0  0  0  4           0  0  0
  1 12  1  0     0  0
  1 30  1  0     0  0
  2 13  1  0     0  0
  2 32  1  0     0  0
  3 29  2  0     0  0
  4 31  1  0     0  0
  5  6  1  0     0  0
  5 18  1  0     0  0
  6 15  2  0     0  0
  7 14  1  0     0  0
  7 16  2  0     0  0
  8 14  2  0     0  0
  8 17  1  0     0  0
  9 15  1  0     0  0
  9 16  1  0     0  0
 10 19  1  0     0  0
 10 29  1  0     0  0
 11 33  1  0     0  0
 11 34  1  0     0  0
 11 35  1  0     0  0
 12 13  1  0     0  0
 12 21  2  0     0  0
 13 22  2  0     0  0
 15 23  1  0     0  0
 16 20  1  0     0  0
 17 20  2  0     0  0
 17 21  1  0     0  0
 18 23  2  0     0  0
 18 36  1  0     0  0
 19 24  2  0     0  0
 19 25  1  0     0  0
 20 22  1  0     0  0
 24 26  1  0     0  0
 25 27  2  0     0  0
 26 28  2  0     0  0
 27 28  1  0     0  0
 29 36  1  0     0  0
 30 38  1  0     0  0
 31 37  1  0     0  0
 33 38  1  0     0  0
 34 39  1  0     0  0
 35 40  1  0     0  0
 37 39  1  0     0  0
 37 40  1  0     0  0
M  END
> <standard_type>
pIC50

> <# Confs.>
25

> <canonical_smiles>
O=C(CC1=CC(NC2=NC=NC3=C2C=C(OC)C(OCCCN4CCC(CO)CC4)=C3)=NN1)NC5=CC=CC=C5

> <standard_relation>
=

> <Publication_ID>
nan

> <predicted_activity_value>
7.886056647693163

> <actual_activity_value>
7.7447274948966935

> <Compound>
27

> <standard_units>
nM

> hash
10396266229640643302

$$$$
27_
XXILIB    08252103423D 0   0.00000     0.00000

 40 44  0     1  0            999 V2000
    1.3663   -0.0000   -0.0000 O   0  0  0  0  0  2           0  0  0
    0.2192   -0.0045    2.3367 O   0  0  0  0  0  2           0  0  0
  -10.7802   -2.5882    2.6526 O   0  0  0  0  0  2           0  0  0
    4.6913    7.5833   -3.5590 O   0  0  0  0  0  2           0  0  0
   -8.0051   -1.5949    1.5247 N   0  0  0  0  0  3           0  0  0
   -6.9401   -1.2530    0.7843 N   0  0  0  0  0  3           0  0  0
   -4.9334   -0.0309   -1.0164 N   0  0  0  0  0  3           0  0  0
   -2.8747   -0.0343   -2.2442 N   0  0  0  0  0  3           0  0  0
   -4.9601    0.0186    1.3670 N   0  0  0  0  0  3           0  0  0
  -10.9940   -0.2931    2.9535 N   0  0  0  0  0  3           0  0  0
    3.9611    2.6444   -2.2193 N   0  0  1  0  0  3           0  0  0
   -0.0000    0.0000    0.0000 C   0  0  0  0  0  4           0  0  0
   -0.6163    0.0000    1.2552 C   0  0  0  0  0  4           0  0  0
   -4.2117   -0.0486   -2.1449 C   0  0  0  0  0  4           0  0  0
   -6.1637   -0.5559    1.6281 C   0  0  0  0  0  4           0  0  0
   -4.2404    0.0192    0.1481 C   0  0  0  0  0  4           0  0  0
   -2.1858   -0.0110   -1.0957 C   0  0  0  0  0  4           0  0  0
   -7.9529   -1.1538    2.8163 C   0  0  0  0  0  4           0  0  0
  -12.2379   -0.0829    2.3296 C   0  0  0  0  0  4           0  0  0
   -2.8208    0.0077    0.1610 C   0  0  0  0  0  4           0  0  0
   -0.7936   -0.0112   -1.1541 C   0  0  0  0  0  4           0  0  0
   -2.0142    0.0052    1.3285 C   0  0  0  0  0  4           0  0  0
   -6.7623   -0.4694    2.9131 C   0  0  0  0  0  4           0  0  0
  -12.9740   -1.1265    1.7567 C   0  0  0  0  0  4           0  0  0
  -12.7461    1.2207    2.2911 C   0  0  0  0  0  4           0  0  0
  -14.2065   -0.8646    1.1537 C   0  0  0  0  0  4           0  0  0
  -13.9788    1.4773    1.6882 C   0  0  0  0  0  4           0  0  0
  -14.7079    0.4354    1.1187 C   0  0  0  0  0  4           0  0  0
  -10.3561   -1.5150    3.0794 C   0  0  0  0  0  4           0  0  0
    1.9810    0.6445   -1.1163 C   0  0  0  0  0  4           0  0  0
    4.0806    6.9585   -2.4370 C   0  0  0  0  0  4           0  0  0
   -0.4285   -0.0044    3.6064 C   0  0  0  0  0  4           0  0  0
    4.2739    1.2173   -2.1084 C   0  0  0  0  0  4           0  0  0
    4.2964    3.3701   -0.9838 C   0  0  0  0  0  4           0  0  0
    4.6693    3.2303   -3.3681 C   0  0  0  0  0  4           0  0  0
   -9.0311   -1.4157    3.8004 C   0  0  0  0  0  4           0  0  0
    4.5661    5.5225   -2.2953 C   0  0  1  0  0  4           0  0  0
    3.4948    0.5592   -0.9685 C   0  0  0  0  0  4           0  0  0
    3.9100    4.8469   -1.0874 C   0  0  0  0  0  4           0  0  0
    4.2919    4.7008   -3.5623 C   0  0  0  0  0  4           0  0  0
  1 12  1  0     0  0
  1 30  1  0     0  0
  2 13  1  0     0  0
  2 32  1  0     0  0
  3 29  2  0     0  0
  4 31  1  0     0  0
  5  6  1  0     0  0
  5 18  1  0     0  0
  6 15  2  0     0  0
  7 14  1  0     0  0
  7 16  2  0     0  0
  8 14  2  0     0  0
  8 17  1  0     0  0
  9 15  1  0     0  0
  9 16  1  0     0  0
 10 19  1  0     0  0
 10 29  1  0     0  0
 11 33  1  0     0  0
 11 34  1  0     0  0
 11 35  1  0     0  0
 12 13  1  0     0  0
 12 21  2  0     0  0
 13 22  2  0     0  0
 15 23  1  0     0  0
 16 20  1  0     0  0
 17 20  2  0     0  0
 17 21  1  0     0  0
 18 23  2  0     0  0
 18 36  1  0     0  0
 19 24  2  0     0  0
 19 25  1  0     0  0
 20 22  1  0     0  0
 24 26  1  0     0  0
 25 27  2  0     0  0
 26 28  2  0     0  0
 27 28  1  0     0  0
 29 36  1  0     0  0
 30 38  1  0     0  0
 31 37  1  0     0  0
 33 38  1  0     0  0
 34 39  1  0     0  0
 35 40  1  0     0  0
 37 39  1  0     0  0
 37 40  1  0     0  0
M  END
> <standard_type>
pIC50

> <# Confs.>
25

> <canonical_smiles>
O=C(CC1=CC(NC2=NC=NC3=C2C=C(OC)C(OCCCN4CCC(CO)CC4)=C3)=NN1)NC5=CC=CC=C5

> <standard_relation>
=

> <Publication_ID>
nan

> <predicted_activity_value>
7.886056647693163

> <actual_activity_value>
7.7447274948966935

> <Compound>
27

> <standard_units>
nM

> hash
10396266229640643302

$$$$
27_
XXILIB    08252103423D 0   0.00000     0.00000

 40 44  0     1  0            999 V2000
    1.3663    0.0000   -0.0000 O   0  0  0  0  0  2           0  0  0
    0.2192   -0.0045    2.3367 O   0  0  0  0  0  2           0  0  0
  -10.9374    2.2936    2.5632 O   0  0  0  0  0  2           0  0  0
    2.5253    7.5626   -4.7635 O   0  0  0  0  0  2           0  0  0
   -8.1140    1.4128    1.4619 N   0  0  0  0  0  3           0  0  0
   -7.0271    1.1159    0.7342 N   0  0  0  0  0  3           0  0  0
   -4.9334   -0.0309   -1.0164 N   0  0  0  0  0  3           0  0  0
   -2.8747   -0.0343   -2.2442 N   0  0  0  0  0  3           0  0  0
   -4.9601    0.0186    1.3670 N   0  0  0  0  0  3           0  0  0
  -11.0372    0.0088    2.9798 N   0  0  0  0  0  3           0  0  0
    3.3140    3.0713   -2.3292 N   0  0  1  0  0  3           0  0  0
    0.0000    0.0000    0.0000 C   0  0  0  0  0  4           0  0  0
   -0.6163    0.0000    1.2552 C   0  0  0  0  0  4           0  0  0
   -4.2117   -0.0486   -2.1449 C   0  0  0  0  0  4           0  0  0
   -6.2029    0.5138    1.6054 C   0  0  0  0  0  4           0  0  0
   -4.2404    0.0192    0.1481 C   0  0  0  0  0  4           0  0  0
   -2.1858   -0.0110   -1.0957 C   0  0  0  0  0  4           0  0  0
   -8.0344    1.0255    2.7693 C   0  0  0  0  0  4           0  0  0
  -12.2723   -0.2927    2.3763 C   0  0  0  0  0  4           0  0  0
   -2.8208    0.0077    0.1610 C   0  0  0  0  0  4           0  0  0
   -0.7936   -0.0112   -1.1541 C   0  0  0  0  0  4           0  0  0
   -2.0142    0.0052    1.3285 C   0  0  0  0  0  4           0  0  0
   -6.7960    0.4373    2.8937 C   0  0  0  0  0  4           0  0  0
  -13.0553    0.6815    1.7462 C   0  0  0  0  0  4           0  0  0
  -12.7191   -1.6187    2.4120 C   0  0  0  0  0  4           0  0  0
  -14.2720    0.3283    1.1576 C   0  0  0  0  0  4           0  0  0
  -13.9353   -1.9669    1.8215 C   0  0  0  0  0  4           0  0  0
  -14.7118   -0.9937    1.1958 C   0  0  0  0  0  4           0  0  0
  -10.4534    1.2628    3.0290 C   0  0  0  0  0  4           0  0  0
    1.9810    0.6445   -1.1163 C   0  0  0  0  0  4           0  0  0
    1.9055    6.9384   -3.6463 C   0  0  0  0  0  4           0  0  0
   -0.4285   -0.0044    3.6064 C   0  0  0  0  0  4           0  0  0
    4.0832    1.9454   -1.7930 C   0  0  0  0  0  4           0  0  0
    3.0135    4.0668   -1.2880 C   0  0  0  0  0  4           0  0  0
    4.0422    3.6970   -3.4440 C   0  0  0  0  0  4           0  0  0
   -9.1233    1.2650    3.7474 C   0  0  0  0  0  4           0  0  0
    2.8235    5.8818   -3.0474 C   0  0  1  0  0  4           0  0  0
    3.3207    1.2242   -0.6804 C   0  0  0  0  0  4           0  0  0
    2.1585    5.2076   -1.8436 C   0  0  0  0  0  4           0  0  0
    3.2220    4.8206   -4.0822 C   0  0  0  0  0  4           0  0  0
  1 12  1  0     0  0
  1 30  1  0     0  0
  2 13  1  0     0  0
  2 32  1  0     0  0
  3 29  2  0     0  0
  4 31  1  0     0  0
  5  6  1  0     0  0
  5 18  1  0     0  0
  6 15  2  0     0  0
  7 14  1  0     0  0
  7 16  2  0     0  0
  8 14  2  0     0  0
  8 17  1  0     0  0
  9 15  1  0     0  0
  9 16  1  0     0  0
 10 19  1  0     0  0
 10 29  1  0     0  0
 11 33  1  0     0  0
 11 34  1  0     0  0
 11 35  1  0     0  0
 12 13  1  0     0  0
 12 21  2  0     0  0
 13 22  2  0     0  0
 15 23  1  0     0  0
 16 20  1  0     0  0
 17 20  2  0     0  0
 17 21  1  0     0  0
 18 23  2  0     0  0
 18 36  1  0     0  0
 19 24  2  0     0  0
 19 25  1  0     0  0
 20 22  1  0     0  0
 24 26  1  0     0  0
 25 27  2  0     0  0
 26 28  2  0     0  0
 27 28  1  0     0  0
 29 36  1  0     0  0
 30 38  1  0     0  0
 31 37  1  0     0  0
 33 38  1  0     0  0
 34 39  1  0     0  0
 35 40  1  0     0  0
 37 39  1  0     0  0
 37 40  1  0     0  0
M  END
> <standard_type>
pIC50

> <# Confs.>
25

> <canonical_smiles>
O=C(CC1=CC(NC2=NC=NC3=C2C=C(OC)C(OCCCN4CCC(CO)CC4)=C3)=NN1)NC5=CC=CC=C5

> <standard_relation>
=

> <Publication_ID>
nan

> <predicted_activity_value>
7.886056647693163

> <actual_activity_value>
7.7447274948966935

> <Compound>
27

> <standard_units>
nM

> hash
10396266229640643302

$$$$
27_
XXILIB    08252103423D 0   0.00000     0.00000

 40 44  0     1  0            999 V2000
    1.3663    0.0000   -0.0000 O   0  0  0  0  0  2           0  0  0
    0.2192   -0.0045    2.3367 O   0  0  0  0  0  2           0  0  0
  -10.6799   -2.7756    2.7125 O   0  0  0  0  0  2           0  0  0
    2.5253    7.5626   -4.7635 O   0  0  0  0  0  2           0  0  0
   -8.0051   -1.5949    1.5247 N   0  0  0  0  0  3           0  0  0
   -6.9401   -1.2530    0.7843 N   0  0  0  0  0  3           0  0  0
   -4.9334   -0.0309   -1.0164 N   0  0  0  0  0  3           0  0  0
   -2.8747   -0.0343   -2.2442 N   0  0  0  0  0  3           0  0  0
   -4.9601    0.0186    1.3670 N   0  0  0  0  0  3           0  0  0
   -9.1305   -3.8091    4.1036 N   0  0  0  0  0  3           0  0  0
    3.3140    3.0713   -2.3292 N   0  0  1  0  0  3           0  0  0
   -0.0000    0.0000    0.0000 C   0  0  0  0  0  4           0  0  0
   -0.6163    0.0000    1.2552 C   0  0  0  0  0  4           0  0  0
   -4.2117   -0.0486   -2.1449 C   0  0  0  0  0  4           0  0  0
   -6.1637   -0.5559    1.6281 C   0  0  0  0  0  4           0  0  0
   -4.2404    0.0192    0.1481 C   0  0  0  0  0  4           0  0  0
   -2.1858   -0.0110   -1.0957 C   0  0  0  0  0  4           0  0  0
   -7.9529   -1.1538    2.8163 C   0  0  0  0  0  4           0  0  0
   -9.5505   -5.1467    3.9808 C   0  0  0  0  0  4           0  0  0
   -2.8208    0.0077    0.1610 C   0  0  0  0  0  4           0  0  0
   -0.7936   -0.0112   -1.1541 C   0  0  0  0  0  4           0  0  0
   -2.0142    0.0052    1.3285 C   0  0  0  0  0  4           0  0  0
   -6.7623   -0.4694    2.9131 C   0  0  0  0  0  4           0  0  0
  -10.6315   -5.5209    3.1741 C   0  0  0  0  0  4           0  0  0
   -8.8508   -6.1272    4.6937 C   0  0  0  0  0  4           0  0  0
  -11.0046   -6.8640    3.0831 C   0  0  0  0  0  4           0  0  0
   -9.2270   -7.4683    4.5986 C   0  0  0  0  0  4           0  0  0
  -10.3040   -7.8362    3.7948 C   0  0  0  0  0  4           0  0  0
   -9.7089   -2.7250    3.4665 C   0  0  0  0  0  4           0  0  0
    1.9810    0.6445   -1.1163 C   0  0  0  0  0  4           0  0  0
    1.9055    6.9384   -3.6463 C   0  0  0  0  0  4           0  0  0
   -0.4285   -0.0044    3.6064 C   0  0  0  0  0  4           0  0  0
    4.0832    1.9454   -1.7930 C   0  0  0  0  0  4           0  0  0
    3.0135    4.0668   -1.2880 C   0  0  0  0  0  4           0  0  0
    4.0422    3.6970   -3.4440 C   0  0  0  0  0  4           0  0  0
   -9.0311   -1.4157    3.8004 C   0  0  0  0  0  4           0  0  0
    2.8235    5.8818   -3.0474 C   0  0  1  0  0  4           0  0  0
    3.3207    1.2242   -0.6804 C   0  0  0  0  0  4           0  0  0
    2.1585    5.2076   -1.8436 C   0  0  0  0  0  4           0  0  0
    3.2220    4.8206   -4.0822 C   0  0  0  0  0  4           0  0  0
  1 12  1  0     0  0
  1 30  1  0     0  0
  2 13  1  0     0  0
  2 32  1  0     0  0
  3 29  2  0     0  0
  4 31  1  0     0  0
  5  6  1  0     0  0
  5 18  1  0     0  0
  6 15  2  0     0  0
  7 14  1  0     0  0
  7 16  2  0     0  0
  8 14  2  0     0  0
  8 17  1  0     0  0
  9 15  1  0     0  0
  9 16  1  0     0  0
 10 19  1  0     0  0
 10 29  1  0     0  0
 11 33  1  0     0  0
 11 34  1  0     0  0
 11 35  1  0     0  0
 12 13  1  0     0  0
 12 21  2  0     0  0
 13 22  2  0     0  0
 15 23  1  0     0  0
 16 20  1  0     0  0
 17 20  2  0     0  0
 17 21  1  0     0  0
 18 23  2  0     0  0
 18 36  1  0     0  0
 19 24  2  0     0  0
 19 25  1  0     0  0
 20 22  1  0     0  0
 24 26  1  0     0  0
 25 27  2  0     0  0
 26 28  2  0     0  0
 27 28  1  0     0  0
 29 36  1  0     0  0
 30 38  1  0     0  0
 31 37  1  0     0  0
 33 38  1  0     0  0
 34 39  1  0     0  0
 35 40  1  0     0  0
 37 39  1  0     0  0
 37 40  1  0     0  0
M  END
> <standard_type>
pIC50

> <# Confs.>
25

> <canonical_smiles>
O=C(CC1=CC(NC2=NC=NC3=C2C=C(OC)C(OCCCN4CCC(CO)CC4)=C3)=NN1)NC5=CC=CC=C5

> <standard_relation>
=

> <Publication_ID>
nan

> <predicted_activity_value>
7.886056647693163

> <actual_activity_value>
7.7447274948966935

> <Compound>
27

> <standard_units>
nM

> hash
10396266229640643302

$$$$
27_
XXILIB    08252103423D 0   0.00000     0.00000

 40 44  0     1  0            999 V2000
    1.3663   -0.0000   -0.0000 O   0  0  0  0  0  2           0  0  0
    0.2192   -0.0045    2.3367 O   0  0  0  0  0  2           0  0  0
  -10.8476    2.4885    2.6154 O   0  0  0  0  0  2           0  0  0
    4.6913    0.7094   -8.3468 O   0  0  0  0  0  2           0  0  0
   -8.1140    1.4128    1.4619 N   0  0  0  0  0  3           0  0  0
   -7.0271    1.1159    0.7342 N   0  0  0  0  0  3           0  0  0
   -4.9334   -0.0309   -1.0164 N   0  0  0  0  0  3           0  0  0
   -2.8747   -0.0343   -2.2442 N   0  0  0  0  0  3           0  0  0
   -4.9601    0.0186    1.3670 N   0  0  0  0  0  3           0  0  0
   -9.3361    3.6629    3.9345 N   0  0  0  0  0  3           0  0  0
    3.9611   -0.5998   -3.3998 N   0  0  1  0  0  3           0  0  0
    0.0000    0.0000    0.0000 C   0  0  0  0  0  4           0  0  0
   -0.6163    0.0000    1.2552 C   0  0  0  0  0  4           0  0  0
   -4.2117   -0.0486   -2.1449 C   0  0  0  0  0  4           0  0  0
   -6.2029    0.5138    1.6054 C   0  0  0  0  0  4           0  0  0
   -4.2404    0.0192    0.1481 C   0  0  0  0  0  4           0  0  0
   -2.1858   -0.0110   -1.0957 C   0  0  0  0  0  4           0  0  0
   -8.0344    1.0255    2.7693 C   0  0  0  0  0  4           0  0  0
   -9.8257    4.9703    3.7564 C   0  0  0  0  0  4           0  0  0
   -2.8208    0.0077    0.1610 C   0  0  0  0  0  4           0  0  0
   -0.7936   -0.0112   -1.1541 C   0  0  0  0  0  4           0  0  0
   -2.0142    0.0052    1.3285 C   0  0  0  0  0  4           0  0  0
   -6.7960    0.4373    2.8937 C   0  0  0  0  0  4           0  0  0
  -10.9421    5.2497    2.9597 C   0  0  0  0  0  4           0  0  0
   -9.1647    6.0180    4.4082 C   0  0  0  0  0  4           0  0  0
  -11.3905    6.5653    2.8202 C   0  0  0  0  0  4           0  0  0
   -9.6174    7.3310    4.2665 C   0  0  0  0  0  4           0  0  0
  -10.7288    7.6046    3.4719 C   0  0  0  0  0  4           0  0  0
   -9.8735    2.5209    3.3664 C   0  0  0  0  0  4           0  0  0
    1.9810   -0.6445   -1.1163 C   0  0  0  0  0  4           0  0  0
    4.0806    1.3688   -7.2447 C   0  0  0  0  0  4           0  0  0
   -0.4285   -0.0044    3.6064 C   0  0  0  0  0  4           0  0  0
    4.2739   -1.2173   -2.1084 C   0  0  0  0  0  4           0  0  0
    4.2964    0.8330   -3.4105 C   0  0  0  0  0  4           0  0  0
    4.6693   -1.3017   -4.4816 C   0  0  0  0  0  4           0  0  0
   -9.1233    1.2650    3.7474 C   0  0  0  0  0  4           0  0  0
    4.5661    0.7735   -5.9303 C   0  0  1  0  0  4           0  0  0
    3.4948   -0.5592   -0.9685 C   0  0  0  0  0  4           0  0  0
    3.9100    1.4817   -4.7412 C   0  0  0  0  0  4           0  0  0
    4.2919   -0.7346   -5.8522 C   0  0  0  0  0  4           0  0  0
  1 12  1  0     0  0
  1 30  1  0     0  0
  2 13  1  0     0  0
  2 32  1  0     0  0
  3 29  2  0     0  0
  4 31  1  0     0  0
  5  6  1  0     0  0
  5 18  1  0     0  0
  6 15  2  0     0  0
  7 14  1  0     0  0
  7 16  2  0     0  0
  8 14  2  0     0  0
  8 17  1  0     0  0
  9 15  1  0     0  0
  9 16  1  0     0  0
 10 19  1  0     0  0
 10 29  1  0     0  0
 11 33  1  0     0  0
 11 34  1  0     0  0
 11 35  1  0     0  0
 12 13  1  0     0  0
 12 21  2  0     0  0
 13 22  2  0     0  0
 15 23  1  0     0  0
 16 20  1  0     0  0
 17 20  2  0     0  0
 17 21  1  0     0  0
 18 23  2  0     0  0
 18 36  1  0     0  0
 19 24  2  0     0  0
 19 25  1  0     0  0
 20 22  1  0     0  0
 24 26  1  0     0  0
 25 27  2  0     0  0
 26 28  2  0     0  0
 27 28  1  0     0  0
 29 36  1  0     0  0
 30 38  1  0     0  0
 31 37  1  0     0  0
 33 38  1  0     0  0
 34 39  1  0     0  0
 35 40  1  0     0  0
 37 39  1  0     0  0
 37 40  1  0     0  0
M  END
> <standard_type>
pIC50

> <# Confs.>
25

> <canonical_smiles>
O=C(CC1=CC(NC2=NC=NC3=C2C=C(OC)C(OCCCN4CCC(CO)CC4)=C3)=NN1)NC5=CC=CC=C5

> <standard_relation>
=

> <Publication_ID>
nan

> <predicted_activity_value>
7.886056647693163

> <actual_activity_value>
7.7447274948966935

> <Compound>
27

> <standard_units>
nM

> hash
10396266229640643302

$$$$
27_
XXILIB    08252103423D 0   0.00000     0.00000

 40 44  0     1  0            999 V2000
    1.3663    0.0000    0.0000 O   0  0  0  0  0  2           0  0  0
    0.2192   -0.0045    2.3367 O   0  0  0  0  0  2           0  0  0
  -10.8476    2.4885    2.6154 O   0  0  0  0  0  2           0  0  0
   10.1404   -2.2121    1.7840 O   0  0  0  0  0  2           0  0  0
   -8.1140    1.4128    1.4619 N   0  0  0  0  0  3           0  0  0
   -7.0271    1.1159    0.7342 N   0  0  0  0  0  3           0  0  0
   -4.9334   -0.0309   -1.0164 N   0  0  0  0  0  3           0  0  0
   -2.8747   -0.0343   -2.2442 N   0  0  0  0  0  3           0  0  0
   -4.9601    0.0186    1.3670 N   0  0  0  0  0  3           0  0  0
   -9.3361    3.6629    3.9345 N   0  0  0  0  0  3           0  0  0
    5.4977   -1.1492   -0.2249 N   0  0  1  0  0  3           0  0  0
    0.0000    0.0000    0.0000 C   0  0  0  0  0  4           0  0  0
   -0.6163    0.0000    1.2552 C   0  0  0  0  0  4           0  0  0
   -4.2117   -0.0486   -2.1449 C   0  0  0  0  0  4           0  0  0
   -6.2029    0.5138    1.6054 C   0  0  0  0  0  4           0  0  0
   -4.2404    0.0192    0.1481 C   0  0  0  0  0  4           0  0  0
   -2.1858   -0.0110   -1.0957 C   0  0  0  0  0  4           0  0  0
   -8.0344    1.0255    2.7693 C   0  0  0  0  0  4           0  0  0
   -9.8257    4.9703    3.7564 C   0  0  0  0  0  4           0  0  0
   -2.8208    0.0077    0.1610 C   0  0  0  0  0  4           0  0  0
   -0.7936   -0.0112   -1.1541 C   0  0  0  0  0  4           0  0  0
   -2.0142    0.0052    1.3285 C   0  0  0  0  0  4           0  0  0
   -6.7960    0.4373    2.8937 C   0  0  0  0  0  4           0  0  0
  -10.9421    5.2497    2.9597 C   0  0  0  0  0  4           0  0  0
   -9.1647    6.0180    4.4082 C   0  0  0  0  0  4           0  0  0
  -11.3905    6.5653    2.8202 C   0  0  0  0  0  4           0  0  0
   -9.6174    7.3310    4.2665 C   0  0  0  0  0  4           0  0  0
  -10.7288    7.6046    3.4719 C   0  0  0  0  0  4           0  0  0
   -9.8735    2.5209    3.3664 C   0  0  0  0  0  4           0  0  0
    1.9810    0.0000   -1.2890 C   0  0  0  0  0  4           0  0  0
    9.5807   -1.0495    1.1863 C   0  0  0  0  0  4           0  0  0
   -0.4285   -0.0044    3.6064 C   0  0  0  0  0  4           0  0  0
    4.0394   -1.2083   -0.3549 C   0  0  0  0  0  4           0  0  0
    5.9284    0.0569    0.4998 C   0  0  0  0  0  4           0  0  0
    5.9955   -2.3589    0.4484 C   0  0  0  0  0  4           0  0  0
   -9.1233    1.2650    3.7474 C   0  0  0  0  0  4           0  0  0
    8.0599   -1.1106    1.2203 C   0  0  1  0  0  4           0  0  0
    3.4948   -0.0000   -1.1183 C   0  0  0  0  0  4           0  0  0
    7.4542    0.1405    0.5772 C   0  0  0  0  0  4           0  0  0
    7.5244   -2.3662    0.5186 C   0  0  0  0  0  4           0  0  0
  1 12  1  0     0  0
  1 30  1  0     0  0
  2 13  1  0     0  0
  2 32  1  0     0  0
  3 29  2  0     0  0
  4 31  1  0     0  0
  5  6  1  0     0  0
  5 18  1  0     0  0
  6 15  2  0     0  0
  7 14  1  0     0  0
  7 16  2  0     0  0
  8 14  2  0     0  0
  8 17  1  0     0  0
  9 15  1  0     0  0
  9 16  1  0     0  0
 10 19  1  0     0  0
 10 29  1  0     0  0
 11 33  1  0     0  0
 11 34  1  0     0  0
 11 35  1  0     0  0
 12 13  1  0     0  0
 12 21  2  0     0  0
 13 22  2  0     0  0
 15 23  1  0     0  0
 16 20  1  0     0  0
 17 20  2  0     0  0
 17 21  1  0     0  0
 18 23  2  0     0  0
 18 36  1  0     0  0
 19 24  2  0     0  0
 19 25  1  0     0  0
 20 22  1  0     0  0
 24 26  1  0     0  0
 25 27  2  0     0  0
 26 28  2  0     0  0
 27 28  1  0     0  0
 29 36  1  0     0  0
 30 38  1  0     0  0
 31 37  1  0     0  0
 33 38  1  0     0  0
 34 39  1  0     0  0
 35 40  1  0     0  0
 37 39  1  0     0  0
 37 40  1  0     0  0
M  END
> <standard_type>
pIC50

> <# Confs.>
25

> <canonical_smiles>
O=C(CC1=CC(NC2=NC=NC3=C2C=C(OC)C(OCCCN4CCC(CO)CC4)=C3)=NN1)NC5=CC=CC=C5

> <standard_relation>
=

> <Publication_ID>
nan

> <predicted_activity_value>
7.886056647693163

> <actual_activity_value>
7.7447274948966935

> <Compound>
27

> <standard_units>
nM

> hash
10396266229640643302

$$$$
27_
XXILIB    08252103423D 0   0.00000     0.00000

 40 44  0     1  0            999 V2000
    1.3663   -0.0000   -0.0000 O   0  0  0  0  0  2           0  0  0
    0.2192   -0.0045    2.3367 O   0  0  0  0  0  2           0  0  0
  -10.6799   -2.7756    2.7125 O   0  0  0  0  0  2           0  0  0
    4.6913    0.7094   -8.3468 O   0  0  0  0  0  2           0  0  0
   -8.0051   -1.5949    1.5247 N   0  0  0  0  0  3           0  0  0
   -6.9401   -1.2530    0.7843 N   0  0  0  0  0  3           0  0  0
   -4.9334   -0.0309   -1.0164 N   0  0  0  0  0  3           0  0  0
   -2.8747   -0.0343   -2.2442 N   0  0  0  0  0  3           0  0  0
   -4.9601    0.0186    1.3670 N   0  0  0  0  0  3           0  0  0
   -9.1305   -3.8091    4.1036 N   0  0  0  0  0  3           0  0  0
    3.9611   -0.5998   -3.3998 N   0  0  1  0  0  3           0  0  0
   -0.0000    0.0000    0.0000 C   0  0  0  0  0  4           0  0  0
   -0.6163    0.0000    1.2552 C   0  0  0  0  0  4           0  0  0
   -4.2117   -0.0486   -2.1449 C   0  0  0  0  0  4           0  0  0
   -6.1637   -0.5559    1.6281 C   0  0  0  0  0  4           0  0  0
   -4.2404    0.0192    0.1481 C   0  0  0  0  0  4           0  0  0
   -2.1858   -0.0110   -1.0957 C   0  0  0  0  0  4           0  0  0
   -7.9529   -1.1538    2.8163 C   0  0  0  0  0  4           0  0  0
   -9.5505   -5.1467    3.9808 C   0  0  0  0  0  4           0  0  0
   -2.8208    0.0077    0.1610 C   0  0  0  0  0  4           0  0  0
   -0.7936   -0.0112   -1.1541 C   0  0  0  0  0  4           0  0  0
   -2.0142    0.0052    1.3285 C   0  0  0  0  0  4           0  0  0
   -6.7623   -0.4694    2.9131 C   0  0  0  0  0  4           0  0  0
  -10.6315   -5.5209    3.1741 C   0  0  0  0  0  4           0  0  0
   -8.8508   -6.1272    4.6937 C   0  0  0  0  0  4           0  0  0
  -11.0046   -6.8640    3.0831 C   0  0  0  0  0  4           0  0  0
   -9.2270   -7.4683    4.5986 C   0  0  0  0  0  4           0  0  0
  -10.3040   -7.8362    3.7948 C   0  0  0  0  0  4           0  0  0
   -9.7089   -2.7250    3.4665 C   0  0  0  0  0  4           0  0  0
    1.9810   -0.6445   -1.1163 C   0  0  0  0  0  4           0  0  0
    4.0806    1.3688   -7.2447 C   0  0  0  0  0  4           0  0  0
   -0.4285   -0.0044    3.6064 C   0  0  0  0  0  4           0  0  0
    4.2739   -1.2173   -2.1084 C   0  0  0  0  0  4           0  0  0
    4.2964    0.8330   -3.4105 C   0  0  0  0  0  4           0  0  0
    4.6693   -1.3017   -4.4816 C   0  0  0  0  0  4           0  0  0
   -9.0311   -1.4157    3.8004 C   0  0  0  0  0  4           0  0  0
    4.5661    0.7735   -5.9303 C   0  0  1  0  0  4           0  0  0
    3.4948   -0.5592   -0.9685 C   0  0  0  0  0  4           0  0  0
    3.9100    1.4817   -4.7412 C   0  0  0  0  0  4           0  0  0
    4.2919   -0.7346   -5.8522 C   0  0  0  0  0  4           0  0  0
  1 12  1  0     0  0
  1 30  1  0     0  0
  2 13  1  0     0  0
  2 32  1  0     0  0
  3 29  2  0     0  0
  4 31  1  0     0  0
  5  6  1  0     0  0
  5 18  1  0     0  0
  6 15  2  0     0  0
  7 14  1  0     0  0
  7 16  2  0     0  0
  8 14  2  0     0  0
  8 17  1  0     0  0
  9 15  1  0     0  0
  9 16  1  0     0  0
 10 19  1  0     0  0
 10 29  1  0     0  0
 11 33  1  0     0  0
 11 34  1  0     0  0
 11 35  1  0     0  0
 12 13  1  0     0  0
 12 21  2  0     0  0
 13 22  2  0     0  0
 15 23  1  0     0  0
 16 20  1  0     0  0
 17 20  2  0     0  0
 17 21  1  0     0  0
 18 23  2  0     0  0
 18 36  1  0     0  0
 19 24  2  0     0  0
 19 25  1  0     0  0
 20 22  1  0     0  0
 24 26  1  0     0  0
 25 27  2  0     0  0
 26 28  2  0     0  0
 27 28  1  0     0  0
 29 36  1  0     0  0
 30 38  1  0     0  0
 31 37  1  0     0  0
 33 38  1  0     0  0
 34 39  1  0     0  0
 35 40  1  0     0  0
 37 39  1  0     0  0
 37 40  1  0     0  0
M  END
> <standard_type>
pIC50

> <# Confs.>
25

> <canonical_smiles>
O=C(CC1=CC(NC2=NC=NC3=C2C=C(OC)C(OCCCN4CCC(CO)CC4)=C3)=NN1)NC5=CC=CC=C5

> <standard_relation>
=

> <Publication_ID>
nan

> <predicted_activity_value>
7.886056647693163

> <actual_activity_value>
7.7447274948966935

> <Compound>
27

> <standard_units>
nM

> hash
10396266229640643302

$$$$
27_
XXILIB    08252103423D 0   0.00000     0.00000

 40 44  0     1  0            999 V2000
    1.3663    0.0000    0.0000 O   0  0  0  0  0  2           0  0  0
    0.2192   -0.0045    2.3367 O   0  0  0  0  0  2           0  0  0
  -10.8476    2.4885    2.6154 O   0  0  0  0  0  2           0  0  0
    6.8469    0.6495   -7.1252 O   0  0  0  0  0  2           0  0  0
   -8.1140    1.4128    1.4619 N   0  0  0  0  0  3           0  0  0
   -7.0271    1.1159    0.7342 N   0  0  0  0  0  3           0  0  0
   -4.9334   -0.0309   -1.0164 N   0  0  0  0  0  3           0  0  0
   -2.8747   -0.0343   -2.2442 N   0  0  0  0  0  3           0  0  0
   -4.9601    0.0186    1.3670 N   0  0  0  0  0  3           0  0  0
   -9.3361    3.6629    3.9345 N   0  0  0  0  0  3           0  0  0
    4.3795   -1.0465   -2.9115 N   0  0  1  0  0  3           0  0  0
    0.0000    0.0000    0.0000 C   0  0  0  0  0  4           0  0  0
   -0.6163    0.0000    1.2552 C   0  0  0  0  0  4           0  0  0
   -4.2117   -0.0486   -2.1449 C   0  0  0  0  0  4           0  0  0
   -6.2029    0.5138    1.6054 C   0  0  0  0  0  4           0  0  0
   -4.2404    0.0192    0.1481 C   0  0  0  0  0  4           0  0  0
   -2.1858   -0.0110   -1.0957 C   0  0  0  0  0  4           0  0  0
   -8.0344    1.0255    2.7693 C   0  0  0  0  0  4           0  0  0
   -9.8257    4.9703    3.7564 C   0  0  0  0  0  4           0  0  0
   -2.8208    0.0077    0.1610 C   0  0  0  0  0  4           0  0  0
   -0.7936   -0.0112   -1.1541 C   0  0  0  0  0  4           0  0  0
   -2.0142    0.0052    1.3285 C   0  0  0  0  0  4           0  0  0
   -6.7960    0.4373    2.8937 C   0  0  0  0  0  4           0  0  0
  -10.9421    5.2497    2.9597 C   0  0  0  0  0  4           0  0  0
   -9.1647    6.0180    4.4082 C   0  0  0  0  0  4           0  0  0
  -11.3905    6.5653    2.8202 C   0  0  0  0  0  4           0  0  0
   -9.6174    7.3310    4.2665 C   0  0  0  0  0  4           0  0  0
  -10.7288    7.6046    3.4719 C   0  0  0  0  0  4           0  0  0
   -9.8735    2.5209    3.3664 C   0  0  0  0  0  4           0  0  0
    1.9810   -0.6445   -1.1163 C   0  0  0  0  0  4           0  0  0
    6.2451    1.3079   -6.0178 C   0  0  0  0  0  4           0  0  0
   -0.4285   -0.0044    3.6064 C   0  0  0  0  0  4           0  0  0
    4.0832   -1.9454   -1.7930 C   0  0  0  0  0  4           0  0  0
    5.2038    0.0954   -2.4850 C   0  0  0  0  0  4           0  0  0
    5.0472   -1.7871   -3.9933 C   0  0  0  0  0  4           0  0  0
   -9.1233    1.2650    3.7474 C   0  0  0  0  0  4           0  0  0
    6.1046    0.3530   -4.8404 C   0  0  1  0  0  4           0  0  0
    3.3207   -1.2242   -0.6804 C   0  0  0  0  0  4           0  0  0
    5.4565    1.0595   -3.6459 C   0  0  0  0  0  4           0  0  0
    5.2889   -0.8930   -5.2117 C   0  0  0  0  0  4           0  0  0
  1 12  1  0     0  0
  1 30  1  0     0  0
  2 13  1  0     0  0
  2 32  1  0     0  0
  3 29  2  0     0  0
  4 31  1  0     0  0
  5  6  1  0     0  0
  5 18  1  0     0  0
  6 15  2  0     0  0
  7 14  1  0     0  0
  7 16  2  0     0  0
  8 14  2  0     0  0
  8 17  1  0     0  0
  9 15  1  0     0  0
  9 16  1  0     0  0
 10 19  1  0     0  0
 10 29  1  0     0  0
 11 33  1  0     0  0
 11 34  1  0     0  0
 11 35  1  0     0  0
 12 13  1  0     0  0
 12 21  2  0     0  0
 13 22  2  0     0  0
 15 23  1  0     0  0
 16 20  1  0     0  0
 17 20  2  0     0  0
 17 21  1  0     0  0
 18 23  2  0     0  0
 18 36  1  0     0  0
 19 24  2  0     0  0
 19 25  1  0     0  0
 20 22  1  0     0  0
 24 26  1  0     0  0
 25 27  2  0     0  0
 26 28  2  0     0  0
 27 28  1  0     0  0
 29 36  1  0     0  0
 30 38  1  0     0  0
 31 37  1  0     0  0
 33 38  1  0     0  0
 34 39  1  0     0  0
 35 40  1  0     0  0
 37 39  1  0     0  0
 37 40  1  0     0  0
M  END
> <standard_type>
pIC50

> <# Confs.>
25

> <canonical_smiles>
O=C(CC1=CC(NC2=NC=NC3=C2C=C(OC)C(OCCCN4CCC(CO)CC4)=C3)=NN1)NC5=CC=CC=C5

> <standard_relation>
=

> <Publication_ID>
nan

> <predicted_activity_value>
7.886056647693163

> <actual_activity_value>
7.7447274948966935

> <Compound>
27

> <standard_units>
nM

> hash
10396266229640643302

$$$$
27_
XXILIB    08252103423D 0   0.00000     0.00000

 40 44  0     1  0            999 V2000
    1.3663    0.0000    0.0000 O   0  0  0  0  0  2           0  0  0
    0.2192   -0.0045    2.3367 O   0  0  0  0  0  2           0  0  0
  -10.9374    2.2936    2.5632 O   0  0  0  0  0  2           0  0  0
   10.1404   -2.2121    1.7840 O   0  0  0  0  0  2           0  0  0
   -8.1140    1.4128    1.4619 N   0  0  0  0  0  3           0  0  0
   -7.0271    1.1159    0.7342 N   0  0  0  0  0  3           0  0  0
   -4.9334   -0.0309   -1.0164 N   0  0  0  0  0  3           0  0  0
   -2.8747   -0.0343   -2.2442 N   0  0  0  0  0  3           0  0  0
   -4.9601    0.0186    1.3670 N   0  0  0  0  0  3           0  0  0
  -11.0372    0.0088    2.9798 N   0  0  0  0  0  3           0  0  0
    5.4977   -1.1492   -0.2249 N   0  0  1  0  0  3           0  0  0
    0.0000    0.0000    0.0000 C   0  0  0  0  0  4           0  0  0
   -0.6163    0.0000    1.2552 C   0  0  0  0  0  4           0  0  0
   -4.2117   -0.0486   -2.1449 C   0  0  0  0  0  4           0  0  0
   -6.2029    0.5138    1.6054 C   0  0  0  0  0  4           0  0  0
   -4.2404    0.0192    0.1481 C   0  0  0  0  0  4           0  0  0
   -2.1858   -0.0110   -1.0957 C   0  0  0  0  0  4           0  0  0
   -8.0344    1.0255    2.7693 C   0  0  0  0  0  4           0  0  0
  -12.2723   -0.2927    2.3763 C   0  0  0  0  0  4           0  0  0
   -2.8208    0.0077    0.1610 C   0  0  0  0  0  4           0  0  0
   -0.7936   -0.0112   -1.1541 C   0  0  0  0  0  4           0  0  0
   -2.0142    0.0052    1.3285 C   0  0  0  0  0  4           0  0  0
   -6.7960    0.4373    2.8937 C   0  0  0  0  0  4           0  0  0
  -13.0553    0.6815    1.7462 C   0  0  0  0  0  4           0  0  0
  -12.7191   -1.6187    2.4120 C   0  0  0  0  0  4           0  0  0
  -14.2720    0.3283    1.1576 C   0  0  0  0  0  4           0  0  0
  -13.9353   -1.9669    1.8215 C   0  0  0  0  0  4           0  0  0
  -14.7118   -0.9937    1.1958 C   0  0  0  0  0  4           0  0  0
  -10.4534    1.2628    3.0290 C   0  0  0  0  0  4           0  0  0
    1.9810    0.0000   -1.2890 C   0  0  0  0  0  4           0  0  0
    9.5807   -1.0495    1.1863 C   0  0  0  0  0  4           0  0  0
   -0.4285   -0.0044    3.6064 C   0  0  0  0  0  4           0  0  0
    4.0394   -1.2083   -0.3549 C   0  0  0  0  0  4           0  0  0
    5.9284    0.0569    0.4998 C   0  0  0  0  0  4           0  0  0
    5.9955   -2.3589    0.4484 C   0  0  0  0  0  4           0  0  0
   -9.1233    1.2650    3.7474 C   0  0  0  0  0  4           0  0  0
    8.0599   -1.1106    1.2203 C   0  0  1  0  0  4           0  0  0
    3.4948   -0.0000   -1.1183 C   0  0  0  0  0  4           0  0  0
    7.4542    0.1405    0.5772 C   0  0  0  0  0  4           0  0  0
    7.5244   -2.3662    0.5186 C   0  0  0  0  0  4           0  0  0
  1 12  1  0     0  0
  1 30  1  0     0  0
  2 13  1  0     0  0
  2 32  1  0     0  0
  3 29  2  0     0  0
  4 31  1  0     0  0
  5  6  1  0     0  0
  5 18  1  0     0  0
  6 15  2  0     0  0
  7 14  1  0     0  0
  7 16  2  0     0  0
  8 14  2  0     0  0
  8 17  1  0     0  0
  9 15  1  0     0  0
  9 16  1  0     0  0
 10 19  1  0     0  0
 10 29  1  0     0  0
 11 33  1  0     0  0
 11 34  1  0     0  0
 11 35  1  0     0  0
 12 13  1  0     0  0
 12 21  2  0     0  0
 13 22  2  0     0  0
 15 23  1  0     0  0
 16 20  1  0     0  0
 17 20  2  0     0  0
 17 21  1  0     0  0
 18 23  2  0     0  0
 18 36  1  0     0  0
 19 24  2  0     0  0
 19 25  1  0     0  0
 20 22  1  0     0  0
 24 26  1  0     0  0
 25 27  2  0     0  0
 26 28  2  0     0  0
 27 28  1  0     0  0
 29 36  1  0     0  0
 30 38  1  0     0  0
 31 37  1  0     0  0
 33 38  1  0     0  0
 34 39  1  0     0  0
 35 40  1  0     0  0
 37 39  1  0     0  0
 37 40  1  0     0  0
M  END
> <standard_type>
pIC50

> <# Confs.>
25

> <canonical_smiles>
O=C(CC1=CC(NC2=NC=NC3=C2C=C(OC)C(OCCCN4CCC(CO)CC4)=C3)=NN1)NC5=CC=CC=C5

> <standard_relation>
=

> <Publication_ID>
nan

> <predicted_activity_value>
7.886056647693163

> <actual_activity_value>
7.7447274948966935

> <Compound>
27

> <standard_units>
nM

> hash
10396266229640643302

$$$$
27_
XXILIB    08252103423D 0   0.00000     0.00000

 40 44  0     1  0            999 V2000
    1.3663    0.0000    0.0000 O   0  0  0  0  0  2           0  0  0
    0.2192   -0.0045    2.3367 O   0  0  0  0  0  2           0  0  0
  -10.6799   -2.7756    2.7125 O   0  0  0  0  0  2           0  0  0
    6.8469    0.6495   -7.1252 O   0  0  0  0  0  2           0  0  0
   -8.0051   -1.5949    1.5247 N   0  0  0  0  0  3           0  0  0
   -6.9401   -1.2530    0.7843 N   0  0  0  0  0  3           0  0  0
   -4.9334   -0.0309   -1.0164 N   0  0  0  0  0  3           0  0  0
   -2.8747   -0.0343   -2.2442 N   0  0  0  0  0  3           0  0  0
   -4.9601    0.0186    1.3670 N   0  0  0  0  0  3           0  0  0
   -9.1305   -3.8091    4.1036 N   0  0  0  0  0  3           0  0  0
    4.3795   -1.0465   -2.9115 N   0  0  1  0  0  3           0  0  0
   -0.0000    0.0000    0.0000 C   0  0  0  0  0  4           0  0  0
   -0.6163    0.0000    1.2552 C   0  0  0  0  0  4           0  0  0
   -4.2117   -0.0486   -2.1449 C   0  0  0  0  0  4           0  0  0
   -6.1637   -0.5559    1.6281 C   0  0  0  0  0  4           0  0  0
   -4.2404    0.0192    0.1481 C   0  0  0  0  0  4           0  0  0
   -2.1858   -0.0110   -1.0957 C   0  0  0  0  0  4           0  0  0
   -7.9529   -1.1538    2.8163 C   0  0  0  0  0  4           0  0  0
   -9.5505   -5.1467    3.9808 C   0  0  0  0  0  4           0  0  0
   -2.8208    0.0077    0.1610 C   0  0  0  0  0  4           0  0  0
   -0.7936   -0.0112   -1.1541 C   0  0  0  0  0  4           0  0  0
   -2.0142    0.0052    1.3285 C   0  0  0  0  0  4           0  0  0
   -6.7623   -0.4694    2.9131 C   0  0  0  0  0  4           0  0  0
  -10.6315   -5.5209    3.1741 C   0  0  0  0  0  4           0  0  0
   -8.8508   -6.1272    4.6937 C   0  0  0  0  0  4           0  0  0
  -11.0046   -6.8640    3.0831 C   0  0  0  0  0  4           0  0  0
   -9.2270   -7.4683    4.5986 C   0  0  0  0  0  4           0  0  0
  -10.3040   -7.8362    3.7948 C   0  0  0  0  0  4           0  0  0
   -9.7089   -2.7250    3.4665 C   0  0  0  0  0  4           0  0  0
    1.9810   -0.6445   -1.1163 C   0  0  0  0  0  4           0  0  0
    6.2451    1.3079   -6.0178 C   0  0  0  0  0  4           0  0  0
   -0.4285   -0.0044    3.6064 C   0  0  0  0  0  4           0  0  0
    4.0832   -1.9454   -1.7930 C   0  0  0  0  0  4           0  0  0
    5.2038    0.0954   -2.4850 C   0  0  0  0  0  4           0  0  0
    5.0472   -1.7871   -3.9933 C   0  0  0  0  0  4           0  0  0
   -9.0311   -1.4157    3.8004 C   0  0  0  0  0  4           0  0  0
    6.1046    0.3530   -4.8404 C   0  0  1  0  0  4           0  0  0
    3.3207   -1.2242   -0.6804 C   0  0  0  0  0  4           0  0  0
    5.4565    1.0595   -3.6459 C   0  0  0  0  0  4           0  0  0
    5.2889   -0.8930   -5.2117 C   0  0  0  0  0  4           0  0  0
  1 12  1  0     0  0
  1 30  1  0     0  0
  2 13  1  0     0  0
  2 32  1  0     0  0
  3 29  2  0     0  0
  4 31  1  0     0  0
  5  6  1  0     0  0
  5 18  1  0     0  0
  6 15  2  0     0  0
  7 14  1  0     0  0
  7 16  2  0     0  0
  8 14  2  0     0  0
  8 17  1  0     0  0
  9 15  1  0     0  0
  9 16  1  0     0  0
 10 19  1  0     0  0
 10 29  1  0     0  0
 11 33  1  0     0  0
 11 34  1  0     0  0
 11 35  1  0     0  0
 12 13  1  0     0  0
 12 21  2  0     0  0
 13 22  2  0     0  0
 15 23  1  0     0  0
 16 20  1  0     0  0
 17 20  2  0     0  0
 17 21  1  0     0  0
 18 23  2  0     0  0
 18 36  1  0     0  0
 19 24  2  0     0  0
 19 25  1  0     0  0
 20 22  1  0     0  0
 24 26  1  0     0  0
 25 27  2  0     0  0
 26 28  2  0     0  0
 27 28  1  0     0  0
 29 36  1  0     0  0
 30 38  1  0     0  0
 31 37  1  0     0  0
 33 38  1  0     0  0
 34 39  1  0     0  0
 35 40  1  0     0  0
 37 39  1  0     0  0
 37 40  1  0     0  0
M  END
> <standard_type>
pIC50

> <# Confs.>
25

> <canonical_smiles>
O=C(CC1=CC(NC2=NC=NC3=C2C=C(OC)C(OCCCN4CCC(CO)CC4)=C3)=NN1)NC5=CC=CC=C5

> <standard_relation>
=

> <Publication_ID>
nan

> <predicted_activity_value>
7.886056647693163

> <actual_activity_value>
7.7447274948966935

> <Compound>
27

> <standard_units>
nM

> hash
10396266229640643302

$$$$
27_
XXILIB    08252103423D 0   0.00000     0.00000

 40 44  0     1  0            999 V2000
    1.3663    0.0000    0.0000 O   0  0  0  0  0  2           0  0  0
    0.2192   -0.0045    2.3367 O   0  0  0  0  0  2           0  0  0
  -10.6799   -2.7756    2.7125 O   0  0  0  0  0  2           0  0  0
   10.1404   -2.2121    1.7840 O   0  0  0  0  0  2           0  0  0
   -8.0051   -1.5949    1.5247 N   0  0  0  0  0  3           0  0  0
   -6.9401   -1.2530    0.7843 N   0  0  0  0  0  3           0  0  0
   -4.9334   -0.0309   -1.0164 N   0  0  0  0  0  3           0  0  0
   -2.8747   -0.0343   -2.2442 N   0  0  0  0  0  3           0  0  0
   -4.9601    0.0186    1.3670 N   0  0  0  0  0  3           0  0  0
   -9.1305   -3.8091    4.1036 N   0  0  0  0  0  3           0  0  0
    5.4977   -1.1492   -0.2249 N   0  0  1  0  0  3           0  0  0
   -0.0000    0.0000    0.0000 C   0  0  0  0  0  4           0  0  0
   -0.6163    0.0000    1.2552 C   0  0  0  0  0  4           0  0  0
   -4.2117   -0.0486   -2.1449 C   0  0  0  0  0  4           0  0  0
   -6.1637   -0.5559    1.6281 C   0  0  0  0  0  4           0  0  0
   -4.2404    0.0192    0.1481 C   0  0  0  0  0  4           0  0  0
   -2.1858   -0.0110   -1.0957 C   0  0  0  0  0  4           0  0  0
   -7.9529   -1.1538    2.8163 C   0  0  0  0  0  4           0  0  0
   -9.5505   -5.1467    3.9808 C   0  0  0  0  0  4           0  0  0
   -2.8208    0.0077    0.1610 C   0  0  0  0  0  4           0  0  0
   -0.7936   -0.0112   -1.1541 C   0  0  0  0  0  4           0  0  0
   -2.0142    0.0052    1.3285 C   0  0  0  0  0  4           0  0  0
   -6.7623   -0.4694    2.9131 C   0  0  0  0  0  4           0  0  0
  -10.6315   -5.5209    3.1741 C   0  0  0  0  0  4           0  0  0
   -8.8508   -6.1272    4.6937 C   0  0  0  0  0  4           0  0  0
  -11.0046   -6.8640    3.0831 C   0  0  0  0  0  4           0  0  0
   -9.2270   -7.4683    4.5986 C   0  0  0  0  0  4           0  0  0
  -10.3040   -7.8362    3.7948 C   0  0  0  0  0  4           0  0  0
   -9.7089   -2.7250    3.4665 C   0  0  0  0  0  4           0  0  0
    1.9810    0.0000   -1.2890 C   0  0  0  0  0  4           0  0  0
    9.5807   -1.0495    1.1863 C   0  0  0  0  0  4           0  0  0
   -0.4285   -0.0044    3.6064 C   0  0  0  0  0  4           0  0  0
    4.0394   -1.2083   -0.3549 C   0  0  0  0  0  4           0  0  0
    5.9284    0.0569    0.4998 C   0  0  0  0  0  4           0  0  0
    5.9955   -2.3589    0.4484 C   0  0  0  0  0  4           0  0  0
   -9.0311   -1.4157    3.8004 C   0  0  0  0  0  4           0  0  0
    8.0599   -1.1106    1.2203 C   0  0  1  0  0  4           0  0  0
    3.4948   -0.0000   -1.1183 C   0  0  0  0  0  4           0  0  0
    7.4542    0.1405    0.5772 C   0  0  0  0  0  4           0  0  0
    7.5244   -2.3662    0.5186 C   0  0  0  0  0  4           0  0  0
  1 12  1  0     0  0
  1 30  1  0     0  0
  2 13  1  0     0  0
  2 32  1  0     0  0
  3 29  2  0     0  0
  4 31  1  0     0  0
  5  6  1  0     0  0
  5 18  1  0     0  0
  6 15  2  0     0  0
  7 14  1  0     0  0
  7 16  2  0     0  0
  8 14  2  0     0  0
  8 17  1  0     0  0
  9 15  1  0     0  0
  9 16  1  0     0  0
 10 19  1  0     0  0
 10 29  1  0     0  0
 11 33  1  0     0  0
 11 34  1  0     0  0
 11 35  1  0     0  0
 12 13  1  0     0  0
 12 21  2  0     0  0
 13 22  2  0     0  0
 15 23  1  0     0  0
 16 20  1  0     0  0
 17 20  2  0     0  0
 17 21  1  0     0  0
 18 23  2  0     0  0
 18 36  1  0     0  0
 19 24  2  0     0  0
 19 25  1  0     0  0
 20 22  1  0     0  0
 24 26  1  0     0  0
 25 27  2  0     0  0
 26 28  2  0     0  0
 27 28  1  0     0  0
 29 36  1  0     0  0
 30 38  1  0     0  0
 31 37  1  0     0  0
 33 38  1  0     0  0
 34 39  1  0     0  0
 35 40  1  0     0  0
 37 39  1  0     0  0
 37 40  1  0     0  0
M  END
> <standard_type>
pIC50

> <# Confs.>
25

> <canonical_smiles>
O=C(CC1=CC(NC2=NC=NC3=C2C=C(OC)C(OCCCN4CCC(CO)CC4)=C3)=NN1)NC5=CC=CC=C5

> <standard_relation>
=

> <Publication_ID>
nan

> <predicted_activity_value>
7.886056647693163

> <actual_activity_value>
7.7447274948966935

> <Compound>
27

> <standard_units>
nM

> hash
10396266229640643302

$$$$
27_
XXILIB    08252103423D 0   0.00000     0.00000

 40 44  0     1  0            999 V2000
    1.3663   -0.0000   -0.0000 O   0  0  0  0  0  2           0  0  0
    0.2192   -0.0045    2.3367 O   0  0  0  0  0  2           0  0  0
  -10.8476    2.4885    2.6154 O   0  0  0  0  0  2           0  0  0
    4.6913    7.5833   -3.5590 O   0  0  0  0  0  2           0  0  0
   -8.1140    1.4128    1.4619 N   0  0  0  0  0  3           0  0  0
   -7.0271    1.1159    0.7342 N   0  0  0  0  0  3           0  0  0
   -4.9334   -0.0309   -1.0164 N   0  0  0  0  0  3           0  0  0
   -2.8747   -0.0343   -2.2442 N   0  0  0  0  0  3           0  0  0
   -4.9601    0.0186    1.3670 N   0  0  0  0  0  3           0  0  0
   -9.3361    3.6629    3.9345 N   0  0  0  0  0  3           0  0  0
    3.9611    2.6444   -2.2193 N   0  0  1  0  0  3           0  0  0
    0.0000    0.0000    0.0000 C   0  0  0  0  0  4           0  0  0
   -0.6163    0.0000    1.2552 C   0  0  0  0  0  4           0  0  0
   -4.2117   -0.0486   -2.1449 C   0  0  0  0  0  4           0  0  0
   -6.2029    0.5138    1.6054 C   0  0  0  0  0  4           0  0  0
   -4.2404    0.0192    0.1481 C   0  0  0  0  0  4           0  0  0
   -2.1858   -0.0110   -1.0957 C   0  0  0  0  0  4           0  0  0
   -8.0344    1.0255    2.7693 C   0  0  0  0  0  4           0  0  0
   -9.8257    4.9703    3.7564 C   0  0  0  0  0  4           0  0  0
   -2.8208    0.0077    0.1610 C   0  0  0  0  0  4           0  0  0
   -0.7936   -0.0112   -1.1541 C   0  0  0  0  0  4           0  0  0
   -2.0142    0.0052    1.3285 C   0  0  0  0  0  4           0  0  0
   -6.7960    0.4373    2.8937 C   0  0  0  0  0  4           0  0  0
  -10.9421    5.2497    2.9597 C   0  0  0  0  0  4           0  0  0
   -9.1647    6.0180    4.4082 C   0  0  0  0  0  4           0  0  0
  -11.3905    6.5653    2.8202 C   0  0  0  0  0  4           0  0  0
   -9.6174    7.3310    4.2665 C   0  0  0  0  0  4           0  0  0
  -10.7288    7.6046    3.4719 C   0  0  0  0  0  4           0  0  0
   -9.8735    2.5209    3.3664 C   0  0  0  0  0  4           0  0  0
    1.9810    0.6445   -1.1163 C   0  0  0  0  0  4           0  0  0
    4.0806    6.9585   -2.4370 C   0  0  0  0  0  4           0  0  0
   -0.4285   -0.0044    3.6064 C   0  0  0  0  0  4           0  0  0
    4.2739    1.2173   -2.1084 C   0  0  0  0  0  4           0  0  0
    4.2964    3.3701   -0.9838 C   0  0  0  0  0  4           0  0  0
    4.6693    3.2303   -3.3681 C   0  0  0  0  0  4           0  0  0
   -9.1233    1.2650    3.7474 C   0  0  0  0  0  4           0  0  0
    4.5661    5.5225   -2.2953 C   0  0  1  0  0  4           0  0  0
    3.4948    0.5592   -0.9685 C   0  0  0  0  0  4           0  0  0
    3.9100    4.8469   -1.0874 C   0  0  0  0  0  4           0  0  0
    4.2919    4.7008   -3.5623 C   0  0  0  0  0  4           0  0  0
  1 12  1  0     0  0
  1 30  1  0     0  0
  2 13  1  0     0  0
  2 32  1  0     0  0
  3 29  2  0     0  0
  4 31  1  0     0  0
  5  6  1  0     0  0
  5 18  1  0     0  0
  6 15  2  0     0  0
  7 14  1  0     0  0
  7 16  2  0     0  0
  8 14  2  0     0  0
  8 17  1  0     0  0
  9 15  1  0     0  0
  9 16  1  0     0  0
 10 19  1  0     0  0
 10 29  1  0     0  0
 11 33  1  0     0  0
 11 34  1  0     0  0
 11 35  1  0     0  0
 12 13  1  0     0  0
 12 21  2  0     0  0
 13 22  2  0     0  0
 15 23  1  0     0  0
 16 20  1  0     0  0
 17 20  2  0     0  0
 17 21  1  0     0  0
 18 23  2  0     0  0
 18 36  1  0     0  0
 19 24  2  0     0  0
 19 25  1  0     0  0
 20 22  1  0     0  0
 24 26  1  0     0  0
 25 27  2  0     0  0
 26 28  2  0     0  0
 27 28  1  0     0  0
 29 36  1  0     0  0
 30 38  1  0     0  0
 31 37  1  0     0  0
 33 38  1  0     0  0
 34 39  1  0     0  0
 35 40  1  0     0  0
 37 39  1  0     0  0
 37 40  1  0     0  0
M  END
> <standard_type>
pIC50

> <# Confs.>
25

> <canonical_smiles>
O=C(CC1=CC(NC2=NC=NC3=C2C=C(OC)C(OCCCN4CCC(CO)CC4)=C3)=NN1)NC5=CC=CC=C5

> <standard_relation>
=

> <Publication_ID>
nan

> <predicted_activity_value>
7.886056647693163

> <actual_activity_value>
7.7447274948966935

> <Compound>
27

> <standard_units>
nM

> hash
10396266229640643302

$$$$
27_
XXILIB    08252103423D 0   0.00000     0.00000

 40 44  0     1  0            999 V2000
    1.3663   -0.0000   -0.0000 O   0  0  0  0  0  2           0  0  0
    0.2192   -0.0045    2.3367 O   0  0  0  0  0  2           0  0  0
   -9.1683   -3.7913    4.0985 O   0  0  0  0  0  2           0  0  0
    4.6913    4.7878   -6.8738 O   0  0  0  0  0  2           0  0  0
   -8.0051   -1.5949    1.5247 N   0  0  0  0  0  3           0  0  0
   -6.9401   -1.2530    0.7843 N   0  0  0  0  0  3           0  0  0
   -4.9334   -0.0309   -1.0164 N   0  0  0  0  0  3           0  0  0
   -2.8747   -0.0343   -2.2442 N   0  0  0  0  0  3           0  0  0
   -4.9601    0.0186    1.3670 N   0  0  0  0  0  3           0  0  0
   -8.0048   -2.5400    5.6746 N   0  0  0  0  0  3           0  0  0
    3.9611    1.1805   -3.2442 N   0  0  1  0  0  3           0  0  0
   -0.0000    0.0000    0.0000 C   0  0  0  0  0  4           0  0  0
   -0.6163    0.0000    1.2552 C   0  0  0  0  0  4           0  0  0
   -4.2117   -0.0486   -2.1449 C   0  0  0  0  0  4           0  0  0
   -6.1637   -0.5559    1.6281 C   0  0  0  0  0  4           0  0  0
   -4.2404    0.0192    0.1481 C   0  0  0  0  0  4           0  0  0
   -2.1858   -0.0110   -1.0957 C   0  0  0  0  0  4           0  0  0
   -7.9529   -1.1538    2.8163 C   0  0  0  0  0  4           0  0  0
   -7.5946   -3.5681    6.5438 C   0  0  0  0  0  4           0  0  0
   -2.8208    0.0077    0.1610 C   0  0  0  0  0  4           0  0  0
   -0.7936   -0.0112   -1.1541 C   0  0  0  0  0  4           0  0  0
   -2.0142    0.0052    1.3285 C   0  0  0  0  0  4           0  0  0
   -6.7623   -0.4694    2.9131 C   0  0  0  0  0  4           0  0  0
   -7.9118   -4.9122    6.3159 C   0  0  0  0  0  4           0  0  0
   -6.8403   -3.2196    7.6702 C   0  0  0  0  0  4           0  0  0
   -7.4755   -5.8951    7.2076 C   0  0  0  0  0  4           0  0  0
   -6.4057   -4.2056    8.5579 C   0  0  0  0  0  4           0  0  0
   -6.7242   -5.5423    8.3273 C   0  0  0  0  0  4           0  0  0
   -8.7492   -2.7144    4.5209 C   0  0  0  0  0  4           0  0  0
    1.9810    0.0000   -1.2890 C   0  0  0  0  0  4           0  0  0
    4.0806    4.8077   -5.5897 C   0  0  0  0  0  4           0  0  0
   -0.4285   -0.0044    3.6064 C   0  0  0  0  0  4           0  0  0
    4.2739    0.0000   -2.4346 C   0  0  0  0  0  4           0  0  0
    4.2964    2.4266   -2.5371 C   0  0  0  0  0  4           0  0  0
    4.6693    1.1135   -4.5320 C   0  0  0  0  0  4           0  0  0
   -9.0311   -1.4157    3.8004 C   0  0  0  0  0  4           0  0  0
    4.5661    3.6350   -4.7490 C   0  0  1  0  0  4           0  0  0
    3.4948   -0.0000   -1.1183 C   0  0  0  0  0  4           0  0  0
    3.9100    3.6538   -3.3652 C   0  0  0  0  0  4           0  0  0
    4.2919    2.2899   -5.4354 C   0  0  0  0  0  4           0  0  0
  1 12  1  0     0  0
  1 30  1  0     0  0
  2 13  1  0     0  0
  2 32  1  0     0  0
  3 29  2  0     0  0
  4 31  1  0     0  0
  5  6  1  0     0  0
  5 18  1  0     0  0
  6 15  2  0     0  0
  7 14  1  0     0  0
  7 16  2  0     0  0
  8 14  2  0     0  0
  8 17  1  0     0  0
  9 15  1  0     0  0
  9 16  1  0     0  0
 10 19  1  0     0  0
 10 29  1  0     0  0
 11 33  1  0     0  0
 11 34  1  0     0  0
 11 35  1  0     0  0
 12 13  1  0     0  0
 12 21  2  0     0  0
 13 22  2  0     0  0
 15 23  1  0     0  0
 16 20  1  0     0  0
 17 20  2  0     0  0
 17 21  1  0     0  0
 18 23  2  0     0  0
 18 36  1  0     0  0
 19 24  2  0     0  0
 19 25  1  0     0  0
 20 22  1  0     0  0
 24 26  1  0     0  0
 25 27  2  0     0  0
 26 28  2  0     0  0
 27 28  1  0     0  0
 29 36  1  0     0  0
 30 38  1  0     0  0
 31 37  1  0     0  0
 33 38  1  0     0  0
 34 39  1  0     0  0
 35 40  1  0     0  0
 37 39  1  0     0  0
 37 40  1  0     0  0
M  END
> <standard_type>
pIC50

> <# Confs.>
25

> <canonical_smiles>
O=C(CC1=CC(NC2=NC=NC3=C2C=C(OC)C(OCCCN4CCC(CO)CC4)=C3)=NN1)NC5=CC=CC=C5

> <standard_relation>
=

> <Publication_ID>
nan

> <predicted_activity_value>
7.886056647693163

> <actual_activity_value>
7.7447274948966935

> <Compound>
27

> <standard_units>
nM

> hash
10396266229640643302

$$$$
27_
XXILIB    08252103423D 0   0.00000     0.00000

 40 44  0     1  0            999 V2000
    1.3663   -0.0000   -0.0000 O   0  0  0  0  0  2           0  0  0
    0.2192   -0.0045    2.3367 O   0  0  0  0  0  2           0  0  0
  -10.6799   -2.7756    2.7125 O   0  0  0  0  0  2           0  0  0
    4.6913    7.5833   -3.5590 O   0  0  0  0  0  2           0  0  0
   -8.0051   -1.5949    1.5247 N   0  0  0  0  0  3           0  0  0
   -6.9401   -1.2530    0.7843 N   0  0  0  0  0  3           0  0  0
   -4.9334   -0.0309   -1.0164 N   0  0  0  0  0  3           0  0  0
   -2.8747   -0.0343   -2.2442 N   0  0  0  0  0  3           0  0  0
   -4.9601    0.0186    1.3670 N   0  0  0  0  0  3           0  0  0
   -9.1305   -3.8091    4.1036 N   0  0  0  0  0  3           0  0  0
    3.9611    2.6444   -2.2193 N   0  0  1  0  0  3           0  0  0
   -0.0000    0.0000    0.0000 C   0  0  0  0  0  4           0  0  0
   -0.6163    0.0000    1.2552 C   0  0  0  0  0  4           0  0  0
   -4.2117   -0.0486   -2.1449 C   0  0  0  0  0  4           0  0  0
   -6.1637   -0.5559    1.6281 C   0  0  0  0  0  4           0  0  0
   -4.2404    0.0192    0.1481 C   0  0  0  0  0  4           0  0  0
   -2.1858   -0.0110   -1.0957 C   0  0  0  0  0  4           0  0  0
   -7.9529   -1.1538    2.8163 C   0  0  0  0  0  4           0  0  0
   -9.5505   -5.1467    3.9808 C   0  0  0  0  0  4           0  0  0
   -2.8208    0.0077    0.1610 C   0  0  0  0  0  4           0  0  0
   -0.7936   -0.0112   -1.1541 C   0  0  0  0  0  4           0  0  0
   -2.0142    0.0052    1.3285 C   0  0  0  0  0  4           0  0  0
   -6.7623   -0.4694    2.9131 C   0  0  0  0  0  4           0  0  0
  -10.6315   -5.5209    3.1741 C   0  0  0  0  0  4           0  0  0
   -8.8508   -6.1272    4.6937 C   0  0  0  0  0  4           0  0  0
  -11.0046   -6.8640    3.0831 C   0  0  0  0  0  4           0  0  0
   -9.2270   -7.4683    4.5986 C   0  0  0  0  0  4           0  0  0
  -10.3040   -7.8362    3.7948 C   0  0  0  0  0  4           0  0  0
   -9.7089   -2.7250    3.4665 C   0  0  0  0  0  4           0  0  0
    1.9810    0.6445   -1.1163 C   0  0  0  0  0  4           0  0  0
    4.0806    6.9585   -2.4370 C   0  0  0  0  0  4           0  0  0
   -0.4285   -0.0044    3.6064 C   0  0  0  0  0  4           0  0  0
    4.2739    1.2173   -2.1084 C   0  0  0  0  0  4           0  0  0
    4.2964    3.3701   -0.9838 C   0  0  0  0  0  4           0  0  0
    4.6693    3.2303   -3.3681 C   0  0  0  0  0  4           0  0  0
   -9.0311   -1.4157    3.8004 C   0  0  0  0  0  4           0  0  0
    4.5661    5.5225   -2.2953 C   0  0  1  0  0  4           0  0  0
    3.4948    0.5592   -0.9685 C   0  0  0  0  0  4           0  0  0
    3.9100    4.8469   -1.0874 C   0  0  0  0  0  4           0  0  0
    4.2919    4.7008   -3.5623 C   0  0  0  0  0  4           0  0  0
  1 12  1  0     0  0
  1 30  1  0     0  0
  2 13  1  0     0  0
  2 32  1  0     0  0
  3 29  2  0     0  0
  4 31  1  0     0  0
  5  6  1  0     0  0
  5 18  1  0     0  0
  6 15  2  0     0  0
  7 14  1  0     0  0
  7 16  2  0     0  0
  8 14  2  0     0  0
  8 17  1  0     0  0
  9 15  1  0     0  0
  9 16  1  0     0  0
 10 19  1  0     0  0
 10 29  1  0     0  0
 11 33  1  0     0  0
 11 34  1  0     0  0
 11 35  1  0     0  0
 12 13  1  0     0  0
 12 21  2  0     0  0
 13 22  2  0     0  0
 15 23  1  0     0  0
 16 20  1  0     0  0
 17 20  2  0     0  0
 17 21  1  0     0  0
 18 23  2  0     0  0
 18 36  1  0     0  0
 19 24  2  0     0  0
 19 25  1  0     0  0
 20 22  1  0     0  0
 24 26  1  0     0  0
 25 27  2  0     0  0
 26 28  2  0     0  0
 27 28  1  0     0  0
 29 36  1  0     0  0
 30 38  1  0     0  0
 31 37  1  0     0  0
 33 38  1  0     0  0
 34 39  1  0     0  0
 35 40  1  0     0  0
 37 39  1  0     0  0
 37 40  1  0     0  0
M  END
> <standard_type>
pIC50

> <# Confs.>
25

> <canonical_smiles>
O=C(CC1=CC(NC2=NC=NC3=C2C=C(OC)C(OCCCN4CCC(CO)CC4)=C3)=NN1)NC5=CC=CC=C5

> <standard_relation>
=

> <Publication_ID>
nan

> <predicted_activity_value>
7.886056647693163

> <actual_activity_value>
7.7447274948966935

> <Compound>
27

> <standard_units>
nM

> hash
10396266229640643302

$$$$
27_
XXILIB    08252103423D 0   0.00000     0.00000

 40 44  0     1  0            999 V2000
    1.3663   -0.0000   -0.0000 O   0  0  0  0  0  2           0  0  0
    0.2192   -0.0045    2.3367 O   0  0  0  0  0  2           0  0  0
   -9.3915    3.6392    3.9545 O   0  0  0  0  0  2           0  0  0
    4.6913    4.7878   -6.8738 O   0  0  0  0  0  2           0  0  0
   -8.1140    1.4128    1.4619 N   0  0  0  0  0  3           0  0  0
   -7.0271    1.1159    0.7342 N   0  0  0  0  0  3           0  0  0
   -4.9334   -0.0309   -1.0164 N   0  0  0  0  0  3           0  0  0
   -2.8747   -0.0343   -2.2442 N   0  0  0  0  0  3           0  0  0
   -4.9601    0.0186    1.3670 N   0  0  0  0  0  3           0  0  0
   -8.1311    2.5204    5.5557 N   0  0  0  0  0  3           0  0  0
    3.9611    1.1805   -3.2442 N   0  0  1  0  0  3           0  0  0
    0.0000    0.0000    0.0000 C   0  0  0  0  0  4           0  0  0
   -0.6163    0.0000    1.2552 C   0  0  0  0  0  4           0  0  0
   -4.2117   -0.0486   -2.1449 C   0  0  0  0  0  4           0  0  0
   -6.2029    0.5138    1.6054 C   0  0  0  0  0  4           0  0  0
   -4.2404    0.0192    0.1481 C   0  0  0  0  0  4           0  0  0
   -2.1858   -0.0110   -1.0957 C   0  0  0  0  0  4           0  0  0
   -8.0344    1.0255    2.7693 C   0  0  0  0  0  4           0  0  0
   -7.7706    3.6035    6.3788 C   0  0  0  0  0  4           0  0  0
   -2.8208    0.0077    0.1610 C   0  0  0  0  0  4           0  0  0
   -0.7936   -0.0112   -1.1541 C   0  0  0  0  0  4           0  0  0
   -2.0142    0.0052    1.3285 C   0  0  0  0  0  4           0  0  0
   -6.7960    0.4373    2.8937 C   0  0  0  0  0  4           0  0  0
   -8.1823    4.9148    6.1138 C   0  0  0  0  0  4           0  0  0
   -6.9747    3.3447    7.5008 C   0  0  0  0  0  4           0  0  0
   -7.8007    5.9538    6.9661 C   0  0  0  0  0  4           0  0  0
   -6.5968    4.3862    8.3501 C   0  0  0  0  0  4           0  0  0
   -7.0085    5.6901    8.0821 C   0  0  0  0  0  4           0  0  0
   -8.9122    2.6043    4.4161 C   0  0  0  0  0  4           0  0  0
    1.9810    0.0000   -1.2890 C   0  0  0  0  0  4           0  0  0
    4.0806    4.8077   -5.5897 C   0  0  0  0  0  4           0  0  0
   -0.4285   -0.0044    3.6064 C   0  0  0  0  0  4           0  0  0
    4.2739    0.0000   -2.4346 C   0  0  0  0  0  4           0  0  0
    4.2964    2.4266   -2.5371 C   0  0  0  0  0  4           0  0  0
    4.6693    1.1135   -4.5320 C   0  0  0  0  0  4           0  0  0
   -9.1233    1.2650    3.7474 C   0  0  0  0  0  4           0  0  0
    4.5661    3.6350   -4.7490 C   0  0  1  0  0  4           0  0  0
    3.4948   -0.0000   -1.1183 C   0  0  0  0  0  4           0  0  0
    3.9100    3.6538   -3.3652 C   0  0  0  0  0  4           0  0  0
    4.2919    2.2899   -5.4354 C   0  0  0  0  0  4           0  0  0
  1 12  1  0     0  0
  1 30  1  0     0  0
  2 13  1  0     0  0
  2 32  1  0     0  0
  3 29  2  0     0  0
  4 31  1  0     0  0
  5  6  1  0     0  0
  5 18  1  0     0  0
  6 15  2  0     0  0
  7 14  1  0     0  0
  7 16  2  0     0  0
  8 14  2  0     0  0
  8 17  1  0     0  0
  9 15  1  0     0  0
  9 16  1  0     0  0
 10 19  1  0     0  0
 10 29  1  0     0  0
 11 33  1  0     0  0
 11 34  1  0     0  0
 11 35  1  0     0  0
 12 13  1  0     0  0
 12 21  2  0     0  0
 13 22  2  0     0  0
 15 23  1  0     0  0
 16 20  1  0     0  0
 17 20  2  0     0  0
 17 21  1  0     0  0
 18 23  2  0     0  0
 18 36  1  0     0  0
 19 24  2  0     0  0
 19 25  1  0     0  0
 20 22  1  0     0  0
 24 26  1  0     0  0
 25 27  2  0     0  0
 26 28  2  0     0  0
 27 28  1  0     0  0
 29 36  1  0     0  0
 30 38  1  0     0  0
 31 37  1  0     0  0
 33 38  1  0     0  0
 34 39  1  0     0  0
 35 40  1  0     0  0
 37 39  1  0     0  0
 37 40  1  0     0  0
M  END
> <standard_type>
pIC50

> <# Confs.>
25

> <canonical_smiles>
O=C(CC1=CC(NC2=NC=NC3=C2C=C(OC)C(OCCCN4CCC(CO)CC4)=C3)=NN1)NC5=CC=CC=C5

> <standard_relation>
=

> <Publication_ID>
nan

> <predicted_activity_value>
7.886056647693163

> <actual_activity_value>
7.7447274948966935

> <Compound>
27

> <standard_units>
nM

> hash
10396266229640643302

$$$$
27_
XXILIB    08252103423D 0   0.00000     0.00000

 40 44  0     1  0            999 V2000
    1.3663   -0.0000   -0.0000 O   0  0  0  0  0  2           0  0  0
    0.2192   -0.0045    2.3367 O   0  0  0  0  0  2           0  0  0
  -11.0156   -0.3375    2.9935 O   0  0  0  0  0  2           0  0  0
    4.6913    4.7878   -6.8738 O   0  0  0  0  0  2           0  0  0
   -8.0051   -1.5949    1.5247 N   0  0  0  0  0  3           0  0  0
   -6.9401   -1.2530    0.7843 N   0  0  0  0  0  3           0  0  0
   -4.9334   -0.0309   -1.0164 N   0  0  0  0  0  3           0  0  0
   -2.8747   -0.0343   -2.2442 N   0  0  0  0  0  3           0  0  0
   -4.9601    0.0186    1.3670 N   0  0  0  0  0  3           0  0  0
   -9.7395    0.7479    4.6051 N   0  0  0  0  0  3           0  0  0
    3.9611    1.1805   -3.2442 N   0  0  1  0  0  3           0  0  0
   -0.0000    0.0000    0.0000 C   0  0  0  0  0  4           0  0  0
   -0.6163    0.0000    1.2552 C   0  0  0  0  0  4           0  0  0
   -4.2117   -0.0486   -2.1449 C   0  0  0  0  0  4           0  0  0
   -6.1637   -0.5559    1.6281 C   0  0  0  0  0  4           0  0  0
   -4.2404    0.0192    0.1481 C   0  0  0  0  0  4           0  0  0
   -2.1858   -0.0110   -1.0957 C   0  0  0  0  0  4           0  0  0
   -7.9529   -1.1538    2.8163 C   0  0  0  0  0  4           0  0  0
  -10.5007    1.9206    4.7660 C   0  0  0  0  0  4           0  0  0
   -2.8208    0.0077    0.1610 C   0  0  0  0  0  4           0  0  0
   -0.7936   -0.0112   -1.1541 C   0  0  0  0  0  4           0  0  0
   -2.0142    0.0052    1.3285 C   0  0  0  0  0  4           0  0  0
   -6.7623   -0.4694    2.9131 C   0  0  0  0  0  4           0  0  0
  -11.6794    2.1526    4.0476 C   0  0  0  0  0  4           0  0  0
  -10.0529    2.8787    5.6831 C   0  0  0  0  0  4           0  0  0
  -12.4008    3.3318    4.2487 C   0  0  0  0  0  4           0  0  0
  -10.7779    4.0551    5.8812 C   0  0  0  0  0  4           0  0  0
  -11.9505    4.2820    5.1635 C   0  0  0  0  0  4           0  0  0
  -10.0435   -0.2943    3.7466 C   0  0  0  0  0  4           0  0  0
    1.9810    0.0000   -1.2890 C   0  0  0  0  0  4           0  0  0
    4.0806    4.8077   -5.5897 C   0  0  0  0  0  4           0  0  0
   -0.4285   -0.0044    3.6064 C   0  0  0  0  0  4           0  0  0
    4.2739    0.0000   -2.4346 C   0  0  0  0  0  4           0  0  0
    4.2964    2.4266   -2.5371 C   0  0  0  0  0  4           0  0  0
    4.6693    1.1135   -4.5320 C   0  0  0  0  0  4           0  0  0
   -9.0311   -1.4157    3.8004 C   0  0  0  0  0  4           0  0  0
    4.5661    3.6350   -4.7490 C   0  0  1  0  0  4           0  0  0
    3.4948   -0.0000   -1.1183 C   0  0  0  0  0  4           0  0  0
    3.9100    3.6538   -3.3652 C   0  0  0  0  0  4           0  0  0
    4.2919    2.2899   -5.4354 C   0  0  0  0  0  4           0  0  0
  1 12  1  0     0  0
  1 30  1  0     0  0
  2 13  1  0     0  0
  2 32  1  0     0  0
  3 29  2  0     0  0
  4 31  1  0     0  0
  5  6  1  0     0  0
  5 18  1  0     0  0
  6 15  2  0     0  0
  7 14  1  0     0  0
  7 16  2  0     0  0
  8 14  2  0     0  0
  8 17  1  0     0  0
  9 15  1  0     0  0
  9 16  1  0     0  0
 10 19  1  0     0  0
 10 29  1  0     0  0
 11 33  1  0     0  0
 11 34  1  0     0  0
 11 35  1  0     0  0
 12 13  1  0     0  0
 12 21  2  0     0  0
 13 22  2  0     0  0
 15 23  1  0     0  0
 16 20  1  0     0  0
 17 20  2  0     0  0
 17 21  1  0     0  0
 18 23  2  0     0  0
 18 36  1  0     0  0
 19 24  2  0     0  0
 19 25  1  0     0  0
 20 22  1  0     0  0
 24 26  1  0     0  0
 25 27  2  0     0  0
 26 28  2  0     0  0
 27 28  1  0     0  0
 29 36  1  0     0  0
 30 38  1  0     0  0
 31 37  1  0     0  0
 33 38  1  0     0  0
 34 39  1  0     0  0
 35 40  1  0     0  0
 37 39  1  0     0  0
 37 40  1  0     0  0
M  END
> <standard_type>
pIC50

> <# Confs.>
25

> <canonical_smiles>
O=C(CC1=CC(NC2=NC=NC3=C2C=C(OC)C(OCCCN4CCC(CO)CC4)=C3)=NN1)NC5=CC=CC=C5

> <standard_relation>
=

> <Publication_ID>
nan

> <predicted_activity_value>
7.886056647693163

> <actual_activity_value>
7.7447274948966935

> <Compound>
27

> <standard_units>
nM

> hash
10396266229640643302

$$$$
27_
XXILIB    08252103423D 0   0.00000     0.00000

 40 44  0     1  0            999 V2000
    1.3663    0.0000    0.0000 O   0  0  0  0  0  2           0  0  0
    0.2192   -0.0045    2.3367 O   0  0  0  0  0  2           0  0  0
  -10.7802   -2.5882    2.6526 O   0  0  0  0  0  2           0  0  0
    4.1722   -7.4630   -2.2694 O   0  0  0  0  0  2           0  0  0
   -8.0051   -1.5949    1.5247 N   0  0  0  0  0  3           0  0  0
   -6.9401   -1.2530    0.7843 N   0  0  0  0  0  3           0  0  0
   -4.9334   -0.0309   -1.0164 N   0  0  0  0  0  3           0  0  0
   -2.8747   -0.0343   -2.2442 N   0  0  0  0  0  3           0  0  0
   -4.9601    0.0186    1.3670 N   0  0  0  0  0  3           0  0  0
  -10.9940   -0.2931    2.9535 N   0  0  0  0  0  3           0  0  0
    3.7119   -2.4650   -1.0335 N   0  0  1  0  0  3           0  0  0
   -0.0000    0.0000    0.0000 C   0  0  0  0  0  4           0  0  0
   -0.6163    0.0000    1.2552 C   0  0  0  0  0  4           0  0  0
   -4.2117   -0.0486   -2.1449 C   0  0  0  0  0  4           0  0  0
   -6.1637   -0.5559    1.6281 C   0  0  0  0  0  4           0  0  0
   -4.2404    0.0192    0.1481 C   0  0  0  0  0  4           0  0  0
   -2.1858   -0.0110   -1.0957 C   0  0  0  0  0  4           0  0  0
   -7.9529   -1.1538    2.8163 C   0  0  0  0  0  4           0  0  0
  -12.2379   -0.0829    2.3296 C   0  0  0  0  0  4           0  0  0
   -2.8208    0.0077    0.1610 C   0  0  0  0  0  4           0  0  0
   -0.7936   -0.0112   -1.1541 C   0  0  0  0  0  4           0  0  0
   -2.0142    0.0052    1.3285 C   0  0  0  0  0  4           0  0  0
   -6.7623   -0.4694    2.9131 C   0  0  0  0  0  4           0  0  0
  -12.9740   -1.1265    1.7567 C   0  0  0  0  0  4           0  0  0
  -12.7461    1.2207    2.2911 C   0  0  0  0  0  4           0  0  0
  -14.2065   -0.8646    1.1537 C   0  0  0  0  0  4           0  0  0
  -13.9788    1.4773    1.6882 C   0  0  0  0  0  4           0  0  0
  -14.7079    0.4354    1.1187 C   0  0  0  0  0  4           0  0  0
  -10.3561   -1.5150    3.0794 C   0  0  0  0  0  4           0  0  0
    1.9810    0.0000   -1.2890 C   0  0  0  0  0  4           0  0  0
    3.7894   -6.3087   -3.0064 C   0  0  0  0  0  4           0  0  0
   -0.4285   -0.0044    3.6064 C   0  0  0  0  0  4           0  0  0
    4.0394   -1.2083   -0.3549 C   0  0  0  0  0  4           0  0  0
    4.2799   -2.5120   -2.3902 C   0  0  0  0  0  4           0  0  0
    4.1852   -3.6084   -0.2379 C   0  0  0  0  0  4           0  0  0
   -9.0311   -1.4157    3.8004 C   0  0  0  0  0  4           0  0  0
    4.2923   -5.0459   -2.3207 C   0  0  1  0  0  4           0  0  0
    3.4948   -0.0000   -1.1183 C   0  0  0  0  0  4           0  0  0
    3.8815   -3.8008   -3.1123 C   0  0  0  0  0  4           0  0  0
    3.7782   -4.9374   -0.8786 C   0  0  0  0  0  4           0  0  0
  1 12  1  0     0  0
  1 30  1  0     0  0
  2 13  1  0     0  0
  2 32  1  0     0  0
  3 29  2  0     0  0
  4 31  1  0     0  0
  5  6  1  0     0  0
  5 18  1  0     0  0
  6 15  2  0     0  0
  7 14  1  0     0  0
  7 16  2  0     0  0
  8 14  2  0     0  0
  8 17  1  0     0  0
  9 15  1  0     0  0
  9 16  1  0     0  0
 10 19  1  0     0  0
 10 29  1  0     0  0
 11 33  1  0     0  0
 11 34  1  0     0  0
 11 35  1  0     0  0
 12 13  1  0     0  0
 12 21  2  0     0  0
 13 22  2  0     0  0
 15 23  1  0     0  0
 16 20  1  0     0  0
 17 20  2  0     0  0
 17 21  1  0     0  0
 18 23  2  0     0  0
 18 36  1  0     0  0
 19 24  2  0     0  0
 19 25  1  0     0  0
 20 22  1  0     0  0
 24 26  1  0     0  0
 25 27  2  0     0  0
 26 28  2  0     0  0
 27 28  1  0     0  0
 29 36  1  0     0  0
 30 38  1  0     0  0
 31 37  1  0     0  0
 33 38  1  0     0  0
 34 39  1  0     0  0
 35 40  1  0     0  0
 37 39  1  0     0  0
 37 40  1  0     0  0
M  END
> <standard_type>
pIC50

> <# Confs.>
25

> <canonical_smiles>
O=C(CC1=CC(NC2=NC=NC3=C2C=C(OC)C(OCCCN4CCC(CO)CC4)=C3)=NN1)NC5=CC=CC=C5

> <standard_relation>
=

> <Publication_ID>
nan

> <predicted_activity_value>
7.886056647693163

> <actual_activity_value>
7.7447274948966935

> <Compound>
27

> <standard_units>
nM

> hash
10396266229640643302

$$$$
38_
XXILIB    08252103423D 0   0.00000     0.00000

 29 32  0     1  0            999 V2000
   -2.2392   -4.5635    1.2196 Cl  0  0  0  0  0  1           0  0  0
   -3.3688   -6.7493   -0.8282 Cl  0  0  0  0  0  1           0  0  0
    3.7427   -4.3645   -5.6874 S   0  0  0  0  0  2           0  0  0
   -4.2226   -1.6979    2.1081 O   0  0  0  0  0  2           0  0  0
    3.1978   -1.8728   -6.0082 N   0  0  0  0  0  3           0  0  0
    2.4107   -1.2110   -1.9028 N   0  0  0  0  0  3           0  0  0
    3.3105   -2.4968   -3.7395 N   0  0  0  0  0  3           0  0  0
   -2.6075   -1.0680    0.5484 N   0  0  2  0  0  3           0  0  0
    0.0000    0.0000    0.0000 N   0  0  2  0  0  3           0  0  0
   -3.5275   -4.1725    0.1246 C   0  0  0  0  0  4           0  0  0
   -4.0005   -5.1379   -0.7792 C   0  0  0  0  0  4           0  0  0
    3.3874   -2.7785   -5.0652 C   0  0  0  0  0  4           0  0  0
    3.6188   -3.7766   -7.2870 C   0  0  0  0  0  4           0  0  0
    3.0319   -1.2607   -3.1122 C   0  0  0  0  0  4           0  0  0
    2.1380    0.0000   -1.3533 C   0  0  0  0  0  4           0  0  0
    3.3270   -2.4338   -7.2617 C   0  0  0  0  0  4           0  0  0
   -4.0836   -2.8808    0.0998 C   0  0  0  0  0  4           0  0  0
   -5.0140   -4.8188   -1.6883 C   0  0  0  0  0  4           0  0  0
    3.3723   -0.0908   -3.7945 C   0  0  0  0  0  4           0  0  0
    2.4703    1.1971   -1.9752 C   0  0  0  0  0  4           0  0  0
   -5.0993   -2.5701   -0.8162 C   0  0  0  0  0  4           0  0  0
   -5.5600   -3.5379   -1.7059 C   0  0  0  0  0  4           0  0  0
    3.0924    1.1425   -3.2146 C   0  0  0  0  0  4           0  0  0
   -3.6569   -1.8309    1.0294 C   0  0  0  0  0  4           0  0  0
    1.4663    0.0000   -0.0000 C   0  0  0  0  0  4           0  0  0
   -2.0707    0.0224    1.3564 C   0  0  0  0  0  4           0  0  0
   -2.0334   -1.1745   -0.7953 C   0  0  0  0  0  4           0  0  0
   -0.5423    0.0000    1.3718 C   0  0  0  0  0  4           0  0  0
   -0.5050   -1.1697   -0.7404 C   0  0  0  0  0  4           0  0  0
  1 10  1  0     0  0
  2 11  1  0     0  0
  3 12  1  0     0  0
  3 13  1  0     0  0
  4 24  2  0     0  0
  5 12  2  0     0  0
  5 16  1  0     0  0
  6 14  1  0     0  0
  6 15  2  0     0  0
  7 12  1  0     0  0
  7 14  1  0     0  0
  8 24  1  0     0  0
  8 26  1  0     0  0
  8 27  1  0     0  0
  9 25  1  0     0  0
  9 28  1  0     0  0
  9 29  1  0     0  0
 10 11  2  0     0  0
 10 17  1  0     0  0
 11 18  1  0     0  0
 13 16  2  0     0  0
 14 19  2  0     0  0
 15 20  1  0     0  0
 15 25  1  0     0  0
 17 21  2  0     0  0
 17 24  1  0     0  0
 18 22  2  0     0  0
 19 23  1  0     0  0
 20 23  2  0     0  0
 21 22  1  0     0  0
 26 28  1  0     0  0
 27 29  1  0     0  0
M  END
> <standard_type>
pIC50

> <# Confs.>
25

> <canonical_smiles>
O=C(C1=CC=CC(Cl)=C1Cl)N(CC2)CCN2CC3=NC(NC4=NC=CS4)=CC=C3

> <standard_relation>
=

> <Publication_ID>
nan

> <predicted_activity_value>
6.275724130399211

> <actual_activity_value>
6.698970004336019

> <Compound>
38

> <standard_units>
nM

> hash
457231127230834412

$$$$
38_
XXILIB    08252103423D 0   0.00000     0.00000

 29 32  0     1  0            999 V2000
   -2.2392   -4.5635    1.2196 Cl  0  0  0  0  0  1           0  0  0
   -3.3688   -6.7493   -0.8282 Cl  0  0  0  0  0  1           0  0  0
    6.6355   -3.4322   -4.2516 S   0  0  0  0  0  2           0  0  0
   -4.2226   -1.6979    2.1081 O   0  0  0  0  0  2           0  0  0
    4.6779   -2.1164   -5.2736 N   0  0  0  0  0  3           0  0  0
    3.1778   -0.8563   -1.5221 N   0  0  0  0  0  3           0  0  0
    4.8947   -1.7730   -2.9532 N   0  0  0  0  0  3           0  0  0
   -2.6075   -1.0680    0.5484 N   0  0  2  0  0  3           0  0  0
    0.0000    0.0000    0.0000 N   0  0  2  0  0  3           0  0  0
   -3.5275   -4.1725    0.1246 C   0  0  0  0  0  4           0  0  0
   -4.0005   -5.1379   -0.7792 C   0  0  0  0  0  4           0  0  0
    5.2866   -2.3403   -4.1225 C   0  0  0  0  0  4           0  0  0
    6.3549   -3.5979   -5.9289 C   0  0  0  0  0  4           0  0  0
    3.8255   -0.8782   -2.7183 C   0  0  0  0  0  4           0  0  0
    2.1380    0.0000   -1.3533 C   0  0  0  0  0  4           0  0  0
    5.2783   -2.8253   -6.2932 C   0  0  0  0  0  4           0  0  0
   -4.0836   -2.8808    0.0998 C   0  0  0  0  0  4           0  0  0
   -5.0140   -4.8188   -1.6883 C   0  0  0  0  0  4           0  0  0
    3.4245   -0.0499   -3.7686 C   0  0  0  0  0  4           0  0  0
    1.7065    0.8614   -2.3543 C   0  0  0  0  0  4           0  0  0
   -5.0993   -2.5701   -0.8162 C   0  0  0  0  0  4           0  0  0
   -5.5600   -3.5379   -1.7059 C   0  0  0  0  0  4           0  0  0
    2.3616    0.8272   -3.5773 C   0  0  0  0  0  4           0  0  0
   -3.6569   -1.8309    1.0294 C   0  0  0  0  0  4           0  0  0
    1.4663    0.0000    0.0000 C   0  0  0  0  0  4           0  0  0
   -2.0707    0.0224    1.3564 C   0  0  0  0  0  4           0  0  0
   -2.0334   -1.1745   -0.7953 C   0  0  0  0  0  4           0  0  0
   -0.5423    0.0000    1.3718 C   0  0  0  0  0  4           0  0  0
   -0.5050   -1.1697   -0.7404 C   0  0  0  0  0  4           0  0  0
  1 10  1  0     0  0
  2 11  1  0     0  0
  3 12  1  0     0  0
  3 13  1  0     0  0
  4 24  2  0     0  0
  5 12  2  0     0  0
  5 16  1  0     0  0
  6 14  1  0     0  0
  6 15  2  0     0  0
  7 12  1  0     0  0
  7 14  1  0     0  0
  8 24  1  0     0  0
  8 26  1  0     0  0
  8 27  1  0     0  0
  9 25  1  0     0  0
  9 28  1  0     0  0
  9 29  1  0     0  0
 10 11  2  0     0  0
 10 17  1  0     0  0
 11 18  1  0     0  0
 13 16  2  0     0  0
 14 19  2  0     0  0
 15 20  1  0     0  0
 15 25  1  0     0  0
 17 21  2  0     0  0
 17 24  1  0     0  0
 18 22  2  0     0  0
 19 23  1  0     0  0
 20 23  2  0     0  0
 21 22  1  0     0  0
 26 28  1  0     0  0
 27 29  1  0     0  0
M  END
> <standard_type>
pIC50

> <# Confs.>
25

> <canonical_smiles>
O=C(C1=CC=CC(Cl)=C1Cl)N(CC2)CCN2CC3=NC(NC4=NC=CS4)=CC=C3

> <standard_relation>
=

> <Publication_ID>
nan

> <predicted_activity_value>
6.275724130399211

> <actual_activity_value>
6.698970004336019

> <Compound>
38

> <standard_units>
nM

> hash
457231127230834412

$$$$
38_
XXILIB    08252103423D 0   0.00000     0.00000

 29 32  0     1  0            999 V2000
   -2.2392   -4.5635    1.2196 Cl  0  0  0  0  0  1           0  0  0
   -3.3688   -6.7493   -0.8282 Cl  0  0  0  0  0  1           0  0  0
    7.2555    2.0454    4.3449 S   0  0  0  0  0  2           0  0  0
   -4.2226   -1.6979    2.1081 O   0  0  0  0  0  2           0  0  0
    6.0969    3.6910    2.7455 N   0  0  0  0  0  3           0  0  0
    3.1778    0.8900    1.5027 N   0  0  0  0  0  3           0  0  0
    4.9081    1.6728    2.9957 N   0  0  0  0  0  3           0  0  0
   -2.6075   -1.0680    0.5484 N   0  0  2  0  0  3           0  0  0
    0.0000    0.0000    0.0000 N   0  0  2  0  0  3           0  0  0
   -3.5275   -4.1725    0.1246 C   0  0  0  0  0  4           0  0  0
   -4.0005   -5.1379   -0.7792 C   0  0  0  0  0  4           0  0  0
    5.9594    2.4865    3.2705 C   0  0  0  0  0  4           0  0  0
    8.0164    3.5489    4.0616 C   0  0  0  0  0  4           0  0  0
    3.8018    1.9120    2.1485 C   0  0  0  0  0  4           0  0  0
    2.1380    1.1720    0.6767 C   0  0  0  0  0  4           0  0  0
    7.2567    4.2914    3.1897 C   0  0  0  0  0  4           0  0  0
   -4.0836   -2.8808    0.0998 C   0  0  0  0  0  4           0  0  0
   -5.0140   -4.8188   -1.6883 C   0  0  0  0  0  4           0  0  0
    3.3988    3.2355    1.9587 C   0  0  0  0  0  4           0  0  0
    1.6797    2.4662    0.4637 C   0  0  0  0  0  4           0  0  0
   -5.0993   -2.5701   -0.8162 C   0  0  0  0  0  4           0  0  0
   -5.5600   -3.5379   -1.7059 C   0  0  0  0  0  4           0  0  0
    2.3269    3.5072    1.1144 C   0  0  0  0  0  4           0  0  0
   -3.6569   -1.8309    1.0294 C   0  0  0  0  0  4           0  0  0
    1.4663    0.0000   -0.0000 C   0  0  0  0  0  4           0  0  0
   -2.0707    0.0224    1.3564 C   0  0  0  0  0  4           0  0  0
   -2.0334   -1.1745   -0.7953 C   0  0  0  0  0  4           0  0  0
   -0.5423    0.0000    1.3718 C   0  0  0  0  0  4           0  0  0
   -0.5050   -1.1697   -0.7404 C   0  0  0  0  0  4           0  0  0
  1 10  1  0     0  0
  2 11  1  0     0  0
  3 12  1  0     0  0
  3 13  1  0     0  0
  4 24  2  0     0  0
  5 12  2  0     0  0
  5 16  1  0     0  0
  6 14  1  0     0  0
  6 15  2  0     0  0
  7 12  1  0     0  0
  7 14  1  0     0  0
  8 24  1  0     0  0
  8 26  1  0     0  0
  8 27  1  0     0  0
  9 25  1  0     0  0
  9 28  1  0     0  0
  9 29  1  0     0  0
 10 11  2  0     0  0
 10 17  1  0     0  0
 11 18  1  0     0  0
 13 16  2  0     0  0
 14 19  2  0     0  0
 15 20  1  0     0  0
 15 25  1  0     0  0
 17 21  2  0     0  0
 17 24  1  0     0  0
 18 22  2  0     0  0
 19 23  1  0     0  0
 20 23  2  0     0  0
 21 22  1  0     0  0
 26 28  1  0     0  0
 27 29  1  0     0  0
M  END
> <standard_type>
pIC50

> <# Confs.>
25

> <canonical_smiles>
O=C(C1=CC=CC(Cl)=C1Cl)N(CC2)CCN2CC3=NC(NC4=NC=CS4)=CC=C3

> <standard_relation>
=

> <Publication_ID>
nan

> <predicted_activity_value>
6.275724130399211

> <actual_activity_value>
6.698970004336019

> <Compound>
38

> <standard_units>
nM

> hash
457231127230834412

$$$$
38_
XXILIB    08252103423D 0   0.00000     0.00000

 29 32  0     1  0            999 V2000
   -2.2392   -4.5635    1.2196 Cl  0  0  0  0  0  1           0  0  0
   -3.3688   -6.7493   -0.8282 Cl  0  0  0  0  0  1           0  0  0
    4.6196    2.3663    6.4058 S   0  0  0  0  0  2           0  0  0
   -4.2226   -1.6979    2.1081 O   0  0  0  0  0  2           0  0  0
    5.2046    3.4042    4.1280 N   0  0  0  0  0  3           0  0  0
    2.4107    1.0424    2.0002 N   0  0  0  0  0  3           0  0  0
    3.3295    1.9819    4.0273 N   0  0  0  0  0  3           0  0  0
   -2.6075   -1.0680    0.5484 N   0  0  2  0  0  3           0  0  0
    0.0000    0.0000    0.0000 N   0  0  2  0  0  3           0  0  0
   -3.5275   -4.1725    0.1246 C   0  0  0  0  0  4           0  0  0
   -4.0005   -5.1379   -0.7792 C   0  0  0  0  0  4           0  0  0
    4.3389    2.5883    4.7027 C   0  0  0  0  0  4           0  0  0
    5.9686    3.4124    6.3309 C   0  0  0  0  0  4           0  0  0
    2.9984    2.0793    2.6562 C   0  0  0  0  0  4           0  0  0
    2.1380    1.1720    0.6767 C   0  0  0  0  0  4           0  0  0
    6.1249    3.8693    5.0443 C   0  0  0  0  0  4           0  0  0
   -4.0836   -2.8808    0.0998 C   0  0  0  0  0  4           0  0  0
   -5.0140   -4.8188   -1.6883 C   0  0  0  0  0  4           0  0  0
    3.3359    3.2564    1.9849 C   0  0  0  0  0  4           0  0  0
    2.4324    2.3254   -0.0397 C   0  0  0  0  0  4           0  0  0
   -5.0993   -2.5701   -0.8162 C   0  0  0  0  0  4           0  0  0
   -5.5600   -3.5379   -1.7059 C   0  0  0  0  0  4           0  0  0
    3.0433    3.3762    0.6300 C   0  0  0  0  0  4           0  0  0
   -3.6569   -1.8309    1.0294 C   0  0  0  0  0  4           0  0  0
    1.4663    0.0000    0.0000 C   0  0  0  0  0  4           0  0  0
   -2.0707    0.0224    1.3564 C   0  0  0  0  0  4           0  0  0
   -2.0334   -1.1745   -0.7953 C   0  0  0  0  0  4           0  0  0
   -0.5423    0.0000    1.3718 C   0  0  0  0  0  4           0  0  0
   -0.5050   -1.1697   -0.7404 C   0  0  0  0  0  4           0  0  0
  1 10  1  0     0  0
  2 11  1  0     0  0
  3 12  1  0     0  0
  3 13  1  0     0  0
  4 24  2  0     0  0
  5 12  2  0     0  0
  5 16  1  0     0  0
  6 14  1  0     0  0
  6 15  2  0     0  0
  7 12  1  0     0  0
  7 14  1  0     0  0
  8 24  1  0     0  0
  8 26  1  0     0  0
  8 27  1  0     0  0
  9 25  1  0     0  0
  9 28  1  0     0  0
  9 29  1  0     0  0
 10 11  2  0     0  0
 10 17  1  0     0  0
 11 18  1  0     0  0
 13 16  2  0     0  0
 14 19  2  0     0  0
 15 20  1  0     0  0
 15 25  1  0     0  0
 17 21  2  0     0  0
 17 24  1  0     0  0
 18 22  2  0     0  0
 19 23  1  0     0  0
 20 23  2  0     0  0
 21 22  1  0     0  0
 26 28  1  0     0  0
 27 29  1  0     0  0
M  END
> <standard_type>
pIC50

> <# Confs.>
25

> <canonical_smiles>
O=C(C1=CC=CC(Cl)=C1Cl)N(CC2)CCN2CC3=NC(NC4=NC=CS4)=CC=C3

> <standard_relation>
=

> <Publication_ID>
nan

> <predicted_activity_value>
6.275724130399211

> <actual_activity_value>
6.698970004336019

> <Compound>
38

> <standard_units>
nM

> hash
457231127230834412

$$$$
38_
XXILIB    08252103423D 0   0.00000     0.00000

 29 32  0     1  0            999 V2000
   -5.9036   -1.1380   -0.9670 Cl  0  0  0  0  0  1           0  0  0
   -6.6331   -3.5266   -2.9695 Cl  0  0  0  0  0  1           0  0  0
    6.6355   -3.4322   -4.2516 S   0  0  0  0  0  2           0  0  0
   -4.2226   -1.6979    2.1081 O   0  0  0  0  0  2           0  0  0
    4.6779   -2.1164   -5.2736 N   0  0  0  0  0  3           0  0  0
    3.1778   -0.8563   -1.5221 N   0  0  0  0  0  3           0  0  0
    4.8947   -1.7730   -2.9532 N   0  0  0  0  0  3           0  0  0
   -2.6075   -1.0680    0.5484 N   0  0  2  0  0  3           0  0  0
    0.0000    0.0000    0.0000 N   0  0  2  0  0  3           0  0  0
   -5.0749   -2.6599   -0.8733 C   0  0  0  0  0  4           0  0  0
   -5.4184   -3.7034   -1.7483 C   0  0  0  0  0  4           0  0  0
    5.2866   -2.3403   -4.1225 C   0  0  0  0  0  4           0  0  0
    6.3549   -3.5979   -5.9289 C   0  0  0  0  0  4           0  0  0
    3.8255   -0.8782   -2.7183 C   0  0  0  0  0  4           0  0  0
    2.1380    0.0000   -1.3533 C   0  0  0  0  0  4           0  0  0
    5.2783   -2.8253   -6.2932 C   0  0  0  0  0  4           0  0  0
   -4.0836   -2.8808    0.0998 C   0  0  0  0  0  4           0  0  0
   -4.7793   -4.9438   -1.6549 C   0  0  0  0  0  4           0  0  0
    3.4245   -0.0499   -3.7686 C   0  0  0  0  0  4           0  0  0
    1.7065    0.8614   -2.3543 C   0  0  0  0  0  4           0  0  0
   -3.4487   -4.1284    0.1861 C   0  0  0  0  0  4           0  0  0
   -3.7982   -5.1541   -0.6893 C   0  0  0  0  0  4           0  0  0
    2.3616    0.8272   -3.5773 C   0  0  0  0  0  4           0  0  0
   -3.6569   -1.8309    1.0294 C   0  0  0  0  0  4           0  0  0
    1.4663    0.0000    0.0000 C   0  0  0  0  0  4           0  0  0
   -2.0707    0.0224    1.3564 C   0  0  0  0  0  4           0  0  0
   -2.0334   -1.1745   -0.7953 C   0  0  0  0  0  4           0  0  0
   -0.5423    0.0000    1.3718 C   0  0  0  0  0  4           0  0  0
   -0.5050   -1.1697   -0.7404 C   0  0  0  0  0  4           0  0  0
  1 10  1  0     0  0
  2 11  1  0     0  0
  3 12  1  0     0  0
  3 13  1  0     0  0
  4 24  2  0     0  0
  5 12  2  0     0  0
  5 16  1  0     0  0
  6 14  1  0     0  0
  6 15  2  0     0  0
  7 12  1  0     0  0
  7 14  1  0     0  0
  8 24  1  0     0  0
  8 26  1  0     0  0
  8 27  1  0     0  0
  9 25  1  0     0  0
  9 28  1  0     0  0
  9 29  1  0     0  0
 10 11  2  0     0  0
 10 17  1  0     0  0
 11 18  1  0     0  0
 13 16  2  0     0  0
 14 19  2  0     0  0
 15 20  1  0     0  0
 15 25  1  0     0  0
 17 21  2  0     0  0
 17 24  1  0     0  0
 18 22  2  0     0  0
 19 23  1  0     0  0
 20 23  2  0     0  0
 21 22  1  0     0  0
 26 28  1  0     0  0
 27 29  1  0     0  0
M  END
> <standard_type>
pIC50

> <# Confs.>
25

> <canonical_smiles>
O=C(C1=CC=CC(Cl)=C1Cl)N(CC2)CCN2CC3=NC(NC4=NC=CS4)=CC=C3

> <standard_relation>
=

> <Publication_ID>
nan

> <predicted_activity_value>
6.275724130399211

> <actual_activity_value>
6.698970004336019

> <Compound>
38

> <standard_units>
nM

> hash
457231127230834412

$$$$
38_
XXILIB    08252103423D 0   0.00000     0.00000

 29 32  0     1  0            999 V2000
   -5.9036   -1.1380   -0.9670 Cl  0  0  0  0  0  1           0  0  0
   -6.6331   -3.5266   -2.9695 Cl  0  0  0  0  0  1           0  0  0
    3.7427   -4.3645   -5.6874 S   0  0  0  0  0  2           0  0  0
   -4.2226   -1.6979    2.1081 O   0  0  0  0  0  2           0  0  0
    3.1978   -1.8728   -6.0082 N   0  0  0  0  0  3           0  0  0
    2.4107   -1.2110   -1.9028 N   0  0  0  0  0  3           0  0  0
    3.3105   -2.4968   -3.7395 N   0  0  0  0  0  3           0  0  0
   -2.6075   -1.0680    0.5484 N   0  0  2  0  0  3           0  0  0
    0.0000    0.0000    0.0000 N   0  0  2  0  0  3           0  0  0
   -5.0749   -2.6599   -0.8733 C   0  0  0  0  0  4           0  0  0
   -5.4184   -3.7034   -1.7483 C   0  0  0  0  0  4           0  0  0
    3.3874   -2.7785   -5.0652 C   0  0  0  0  0  4           0  0  0
    3.6188   -3.7766   -7.2870 C   0  0  0  0  0  4           0  0  0
    3.0319   -1.2607   -3.1122 C   0  0  0  0  0  4           0  0  0
    2.1380    0.0000   -1.3533 C   0  0  0  0  0  4           0  0  0
    3.3270   -2.4338   -7.2617 C   0  0  0  0  0  4           0  0  0
   -4.0836   -2.8808    0.0998 C   0  0  0  0  0  4           0  0  0
   -4.7793   -4.9438   -1.6549 C   0  0  0  0  0  4           0  0  0
    3.3723   -0.0908   -3.7945 C   0  0  0  0  0  4           0  0  0
    2.4703    1.1971   -1.9752 C   0  0  0  0  0  4           0  0  0
   -3.4487   -4.1284    0.1861 C   0  0  0  0  0  4           0  0  0
   -3.7982   -5.1541   -0.6893 C   0  0  0  0  0  4           0  0  0
    3.0924    1.1425   -3.2146 C   0  0  0  0  0  4           0  0  0
   -3.6569   -1.8309    1.0294 C   0  0  0  0  0  4           0  0  0
    1.4663    0.0000   -0.0000 C   0  0  0  0  0  4           0  0  0
   -2.0707    0.0224    1.3564 C   0  0  0  0  0  4           0  0  0
   -2.0334   -1.1745   -0.7953 C   0  0  0  0  0  4           0  0  0
   -0.5423    0.0000    1.3718 C   0  0  0  0  0  4           0  0  0
   -0.5050   -1.1697   -0.7404 C   0  0  0  0  0  4           0  0  0
  1 10  1  0     0  0
  2 11  1  0     0  0
  3 12  1  0     0  0
  3 13  1  0     0  0
  4 24  2  0     0  0
  5 12  2  0     0  0
  5 16  1  0     0  0
  6 14  1  0     0  0
  6 15  2  0     0  0
  7 12  1  0     0  0
  7 14  1  0     0  0
  8 24  1  0     0  0
  8 26  1  0     0  0
  8 27  1  0     0  0
  9 25  1  0     0  0
  9 28  1  0     0  0
  9 29  1  0     0  0
 10 11  2  0     0  0
 10 17  1  0     0  0
 11 18  1  0     0  0
 13 16  2  0     0  0
 14 19  2  0     0  0
 15 20  1  0     0  0
 15 25  1  0     0  0
 17 21  2  0     0  0
 17 24  1  0     0  0
 18 22  2  0     0  0
 19 23  1  0     0  0
 20 23  2  0     0  0
 21 22  1  0     0  0
 26 28  1  0     0  0
 27 29  1  0     0  0
M  END
> <standard_type>
pIC50

> <# Confs.>
25

> <canonical_smiles>
O=C(C1=CC=CC(Cl)=C1Cl)N(CC2)CCN2CC3=NC(NC4=NC=CS4)=CC=C3

> <standard_relation>
=

> <Publication_ID>
nan

> <predicted_activity_value>
6.275724130399211

> <actual_activity_value>
6.698970004336019

> <Compound>
38

> <standard_units>
nM

> hash
457231127230834412

$$$$
38_
XXILIB    08252103423D 0   0.00000     0.00000

 29 32  0     1  0            999 V2000
   -5.9036   -1.1380   -0.9670 Cl  0  0  0  0  0  1           0  0  0
   -6.6331   -3.5266   -2.9695 Cl  0  0  0  0  0  1           0  0  0
    7.2555    2.0454    4.3449 S   0  0  0  0  0  2           0  0  0
   -4.2226   -1.6979    2.1081 O   0  0  0  0  0  2           0  0  0
    6.0969    3.6910    2.7455 N   0  0  0  0  0  3           0  0  0
    3.1778    0.8900    1.5027 N   0  0  0  0  0  3           0  0  0
    4.9081    1.6728    2.9957 N   0  0  0  0  0  3           0  0  0
   -2.6075   -1.0680    0.5484 N   0  0  2  0  0  3           0  0  0
    0.0000    0.0000    0.0000 N   0  0  2  0  0  3           0  0  0
   -5.0749   -2.6599   -0.8733 C   0  0  0  0  0  4           0  0  0
   -5.4184   -3.7034   -1.7483 C   0  0  0  0  0  4           0  0  0
    5.9594    2.4865    3.2705 C   0  0  0  0  0  4           0  0  0
    8.0164    3.5489    4.0616 C   0  0  0  0  0  4           0  0  0
    3.8018    1.9120    2.1485 C   0  0  0  0  0  4           0  0  0
    2.1380    1.1720    0.6767 C   0  0  0  0  0  4           0  0  0
    7.2567    4.2914    3.1897 C   0  0  0  0  0  4           0  0  0
   -4.0836   -2.8808    0.0998 C   0  0  0  0  0  4           0  0  0
   -4.7793   -4.9438   -1.6549 C   0  0  0  0  0  4           0  0  0
    3.3988    3.2355    1.9587 C   0  0  0  0  0  4           0  0  0
    1.6797    2.4662    0.4637 C   0  0  0  0  0  4           0  0  0
   -3.4487   -4.1284    0.1861 C   0  0  0  0  0  4           0  0  0
   -3.7982   -5.1541   -0.6893 C   0  0  0  0  0  4           0  0  0
    2.3269    3.5072    1.1144 C   0  0  0  0  0  4           0  0  0
   -3.6569   -1.8309    1.0294 C   0  0  0  0  0  4           0  0  0
    1.4663    0.0000   -0.0000 C   0  0  0  0  0  4           0  0  0
   -2.0707    0.0224    1.3564 C   0  0  0  0  0  4           0  0  0
   -2.0334   -1.1745   -0.7953 C   0  0  0  0  0  4           0  0  0
   -0.5423    0.0000    1.3718 C   0  0  0  0  0  4           0  0  0
   -0.5050   -1.1697   -0.7404 C   0  0  0  0  0  4           0  0  0
  1 10  1  0     0  0
  2 11  1  0     0  0
  3 12  1  0     0  0
  3 13  1  0     0  0
  4 24  2  0     0  0
  5 12  2  0     0  0
  5 16  1  0     0  0
  6 14  1  0     0  0
  6 15  2  0     0  0
  7 12  1  0     0  0
  7 14  1  0     0  0
  8 24  1  0     0  0
  8 26  1  0     0  0
  8 27  1  0     0  0
  9 25  1  0     0  0
  9 28  1  0     0  0
  9 29  1  0     0  0
 10 11  2  0     0  0
 10 17  1  0     0  0
 11 18  1  0     0  0
 13 16  2  0     0  0
 14 19  2  0     0  0
 15 20  1  0     0  0
 15 25  1  0     0  0
 17 21  2  0     0  0
 17 24  1  0     0  0
 18 22  2  0     0  0
 19 23  1  0     0  0
 20 23  2  0     0  0
 21 22  1  0     0  0
 26 28  1  0     0  0
 27 29  1  0     0  0
M  END
> <standard_type>
pIC50

> <# Confs.>
25

> <canonical_smiles>
O=C(C1=CC=CC(Cl)=C1Cl)N(CC2)CCN2CC3=NC(NC4=NC=CS4)=CC=C3

> <standard_relation>
=

> <Publication_ID>
nan

> <predicted_activity_value>
6.275724130399211

> <actual_activity_value>
6.698970004336019

> <Compound>
38

> <standard_units>
nM

> hash
457231127230834412

$$$$
38_
XXILIB    08252103423D 0   0.00000     0.00000

 29 32  0     1  0            999 V2000
   -5.9036   -1.1380   -0.9670 Cl  0  0  0  0  0  1           0  0  0
   -6.6331   -3.5266   -2.9695 Cl  0  0  0  0  0  1           0  0  0
    4.6196    2.3663    6.4058 S   0  0  0  0  0  2           0  0  0
   -4.2226   -1.6979    2.1081 O   0  0  0  0  0  2           0  0  0
    5.2046    3.4042    4.1280 N   0  0  0  0  0  3           0  0  0
    2.4107    1.0424    2.0002 N   0  0  0  0  0  3           0  0  0
    3.3295    1.9819    4.0273 N   0  0  0  0  0  3           0  0  0
   -2.6075   -1.0680    0.5484 N   0  0  2  0  0  3           0  0  0
    0.0000    0.0000    0.0000 N   0  0  2  0  0  3           0  0  0
   -5.0749   -2.6599   -0.8733 C   0  0  0  0  0  4           0  0  0
   -5.4184   -3.7034   -1.7483 C   0  0  0  0  0  4           0  0  0
    4.3389    2.5883    4.7027 C   0  0  0  0  0  4           0  0  0
    5.9686    3.4124    6.3309 C   0  0  0  0  0  4           0  0  0
    2.9984    2.0793    2.6562 C   0  0  0  0  0  4           0  0  0
    2.1380    1.1720    0.6767 C   0  0  0  0  0  4           0  0  0
    6.1249    3.8693    5.0443 C   0  0  0  0  0  4           0  0  0
   -4.0836   -2.8808    0.0998 C   0  0  0  0  0  4           0  0  0
   -4.7793   -4.9438   -1.6549 C   0  0  0  0  0  4           0  0  0
    3.3359    3.2564    1.9849 C   0  0  0  0  0  4           0  0  0
    2.4324    2.3254   -0.0397 C   0  0  0  0  0  4           0  0  0
   -3.4487   -4.1284    0.1861 C   0  0  0  0  0  4           0  0  0
   -3.7982   -5.1541   -0.6893 C   0  0  0  0  0  4           0  0  0
    3.0433    3.3762    0.6300 C   0  0  0  0  0  4           0  0  0
   -3.6569   -1.8309    1.0294 C   0  0  0  0  0  4           0  0  0
    1.4663    0.0000    0.0000 C   0  0  0  0  0  4           0  0  0
   -2.0707    0.0224    1.3564 C   0  0  0  0  0  4           0  0  0
   -2.0334   -1.1745   -0.7953 C   0  0  0  0  0  4           0  0  0
   -0.5423    0.0000    1.3718 C   0  0  0  0  0  4           0  0  0
   -0.5050   -1.1697   -0.7404 C   0  0  0  0  0  4           0  0  0
  1 10  1  0     0  0
  2 11  1  0     0  0
  3 12  1  0     0  0
  3 13  1  0     0  0
  4 24  2  0     0  0
  5 12  2  0     0  0
  5 16  1  0     0  0
  6 14  1  0     0  0
  6 15  2  0     0  0
  7 12  1  0     0  0
  7 14  1  0     0  0
  8 24  1  0     0  0
  8 26  1  0     0  0
  8 27  1  0     0  0
  9 25  1  0     0  0
  9 28  1  0     0  0
  9 29  1  0     0  0
 10 11  2  0     0  0
 10 17  1  0     0  0
 11 18  1  0     0  0
 13 16  2  0     0  0
 14 19  2  0     0  0
 15 20  1  0     0  0
 15 25  1  0     0  0
 17 21  2  0     0  0
 17 24  1  0     0  0
 18 22  2  0     0  0
 19 23  1  0     0  0
 20 23  2  0     0  0
 21 22  1  0     0  0
 26 28  1  0     0  0
 27 29  1  0     0  0
M  END
> <standard_type>
pIC50

> <# Confs.>
25

> <canonical_smiles>
O=C(C1=CC=CC(Cl)=C1Cl)N(CC2)CCN2CC3=NC(NC4=NC=CS4)=CC=C3

> <standard_relation>
=

> <Publication_ID>
nan

> <predicted_activity_value>
6.275724130399211

> <actual_activity_value>
6.698970004336019

> <Compound>
38

> <standard_units>
nM

> hash
457231127230834412

$$$$
38_
XXILIB    08252103423D 0   0.00000     0.00000

 29 32  0     1  0            999 V2000
   -2.2392   -4.5635    1.2196 Cl  0  0  0  0  0  1           0  0  0
   -3.3688   -6.7493   -0.8282 Cl  0  0  0  0  0  1           0  0  0
    4.6196   -6.7307   -1.1537 S   0  0  0  0  0  2           0  0  0
   -4.2226   -1.6979    2.1081 O   0  0  0  0  0  2           0  0  0
    5.2046   -5.2770    0.8842 N   0  0  0  0  0  3           0  0  0
    2.4107   -2.2534   -0.0974 N   0  0  0  0  0  3           0  0  0
    3.3295   -4.4787   -0.2973 N   0  0  0  0  0  3           0  0  0
   -2.6075   -1.0680    0.5484 N   0  0  2  0  0  3           0  0  0
    0.0000    0.0000    0.0000 N   0  0  2  0  0  3           0  0  0
   -3.5275   -4.1725    0.1246 C   0  0  0  0  0  4           0  0  0
   -4.0005   -5.1379   -0.7792 C   0  0  0  0  0  4           0  0  0
    4.3389   -5.3668   -0.1098 C   0  0  0  0  0  4           0  0  0
    5.9686   -7.1889   -0.2103 C   0  0  0  0  0  4           0  0  0
    2.9984   -3.3400    0.4727 C   0  0  0  0  0  4           0  0  0
    2.1380   -1.1720    0.6767 C   0  0  0  0  0  4           0  0  0
    6.1249   -6.3031    0.8288 C   0  0  0  0  0  4           0  0  0
   -4.0836   -2.8808    0.0998 C   0  0  0  0  0  4           0  0  0
   -5.0140   -4.8188   -1.6883 C   0  0  0  0  0  4           0  0  0
    3.3359   -3.3472    1.8276 C   0  0  0  0  0  4           0  0  0
    2.4324   -1.1283    2.0337 C   0  0  0  0  0  4           0  0  0
   -5.0993   -2.5701   -0.8162 C   0  0  0  0  0  4           0  0  0
   -5.5600   -3.5379   -1.7059 C   0  0  0  0  0  4           0  0  0
    3.0433   -2.2338    2.6089 C   0  0  0  0  0  4           0  0  0
   -3.6569   -1.8309    1.0294 C   0  0  0  0  0  4           0  0  0
    1.4663   -0.0000    0.0000 C   0  0  0  0  0  4           0  0  0
   -2.0707    0.0224    1.3564 C   0  0  0  0  0  4           0  0  0
   -2.0334   -1.1745   -0.7953 C   0  0  0  0  0  4           0  0  0
   -0.5423    0.0000    1.3718 C   0  0  0  0  0  4           0  0  0
   -0.5050   -1.1697   -0.7404 C   0  0  0  0  0  4           0  0  0
  1 10  1  0     0  0
  2 11  1  0     0  0
  3 12  1  0     0  0
  3 13  1  0     0  0
  4 24  2  0     0  0
  5 12  2  0     0  0
  5 16  1  0     0  0
  6 14  1  0     0  0
  6 15  2  0     0  0
  7 12  1  0     0  0
  7 14  1  0     0  0
  8 24  1  0     0  0
  8 26  1  0     0  0
  8 27  1  0     0  0
  9 25  1  0     0  0
  9 28  1  0     0  0
  9 29  1  0     0  0
 10 11  2  0     0  0
 10 17  1  0     0  0
 11 18  1  0     0  0
 13 16  2  0     0  0
 14 19  2  0     0  0
 15 20  1  0     0  0
 15 25  1  0     0  0
 17 21  2  0     0  0
 17 24  1  0     0  0
 18 22  2  0     0  0
 19 23  1  0     0  0
 20 23  2  0     0  0
 21 22  1  0     0  0
 26 28  1  0     0  0
 27 29  1  0     0  0
M  END
> <standard_type>
pIC50

> <# Confs.>
25

> <canonical_smiles>
O=C(C1=CC=CC(Cl)=C1Cl)N(CC2)CCN2CC3=NC(NC4=NC=CS4)=CC=C3

> <standard_relation>
=

> <Publication_ID>
nan

> <predicted_activity_value>
6.275724130399211

> <actual_activity_value>
6.698970004336019

> <Compound>
38

> <standard_units>
nM

> hash
457231127230834412

$$$$
38_
XXILIB    08252103423D 0   0.00000     0.00000

 29 32  0     1  0            999 V2000
   -5.9036   -1.1380   -0.9670 Cl  0  0  0  0  0  1           0  0  0
   -6.6331   -3.5266   -2.9695 Cl  0  0  0  0  0  1           0  0  0
    4.6196   -6.7307   -1.1537 S   0  0  0  0  0  2           0  0  0
   -4.2226   -1.6979    2.1081 O   0  0  0  0  0  2           0  0  0
    5.2046   -5.2770    0.8842 N   0  0  0  0  0  3           0  0  0
    2.4107   -2.2534   -0.0974 N   0  0  0  0  0  3           0  0  0
    3.3295   -4.4787   -0.2973 N   0  0  0  0  0  3           0  0  0
   -2.6075   -1.0680    0.5484 N   0  0  2  0  0  3           0  0  0
    0.0000    0.0000    0.0000 N   0  0  2  0  0  3           0  0  0
   -5.0749   -2.6599   -0.8733 C   0  0  0  0  0  4           0  0  0
   -5.4184   -3.7034   -1.7483 C   0  0  0  0  0  4           0  0  0
    4.3389   -5.3668   -0.1098 C   0  0  0  0  0  4           0  0  0
    5.9686   -7.1889   -0.2103 C   0  0  0  0  0  4           0  0  0
    2.9984   -3.3400    0.4727 C   0  0  0  0  0  4           0  0  0
    2.1380   -1.1720    0.6767 C   0  0  0  0  0  4           0  0  0
    6.1249   -6.3031    0.8288 C   0  0  0  0  0  4           0  0  0
   -4.0836   -2.8808    0.0998 C   0  0  0  0  0  4           0  0  0
   -4.7793   -4.9438   -1.6549 C   0  0  0  0  0  4           0  0  0
    3.3359   -3.3472    1.8276 C   0  0  0  0  0  4           0  0  0
    2.4324   -1.1283    2.0337 C   0  0  0  0  0  4           0  0  0
   -3.4487   -4.1284    0.1861 C   0  0  0  0  0  4           0  0  0
   -3.7982   -5.1541   -0.6893 C   0  0  0  0  0  4           0  0  0
    3.0433   -2.2338    2.6089 C   0  0  0  0  0  4           0  0  0
   -3.6569   -1.8309    1.0294 C   0  0  0  0  0  4           0  0  0
    1.4663   -0.0000    0.0000 C   0  0  0  0  0  4           0  0  0
   -2.0707    0.0224    1.3564 C   0  0  0  0  0  4           0  0  0
   -2.0334   -1.1745   -0.7953 C   0  0  0  0  0  4           0  0  0
   -0.5423    0.0000    1.3718 C   0  0  0  0  0  4           0  0  0
   -0.5050   -1.1697   -0.7404 C   0  0  0  0  0  4           0  0  0
  1 10  1  0     0  0
  2 11  1  0     0  0
  3 12  1  0     0  0
  3 13  1  0     0  0
  4 24  2  0     0  0
  5 12  2  0     0  0
  5 16  1  0     0  0
  6 14  1  0     0  0
  6 15  2  0     0  0
  7 12  1  0     0  0
  7 14  1  0     0  0
  8 24  1  0     0  0
  8 26  1  0     0  0
  8 27  1  0     0  0
  9 25  1  0     0  0
  9 28  1  0     0  0
  9 29  1  0     0  0
 10 11  2  0     0  0
 10 17  1  0     0  0
 11 18  1  0     0  0
 13 16  2  0     0  0
 14 19  2  0     0  0
 15 20  1  0     0  0
 15 25  1  0     0  0
 17 21  2  0     0  0
 17 24  1  0     0  0
 18 22  2  0     0  0
 19 23  1  0     0  0
 20 23  2  0     0  0
 21 22  1  0     0  0
 26 28  1  0     0  0
 27 29  1  0     0  0
M  END
> <standard_type>
pIC50

> <# Confs.>
25

> <canonical_smiles>
O=C(C1=CC=CC(Cl)=C1Cl)N(CC2)CCN2CC3=NC(NC4=NC=CS4)=CC=C3

> <standard_relation>
=

> <Publication_ID>
nan

> <predicted_activity_value>
6.275724130399211

> <actual_activity_value>
6.698970004336019

> <Compound>
38

> <standard_units>
nM

> hash
457231127230834412

$$$$
38_
XXILIB    08252103423D 0   0.00000     0.00000

 29 32  0     1  0            999 V2000
    0.2649   -5.8215    1.4499 Cl  0  0  0  0  0  1           0  0  0
   -0.8093   -8.0461   -0.5860 Cl  0  0  0  0  0  1           0  0  0
    3.7427   -4.3645   -5.6874 S   0  0  0  0  0  2           0  0  0
   -2.0188   -3.5293    3.0199 O   0  0  0  0  0  2           0  0  0
    3.1978   -1.8728   -6.0082 N   0  0  0  0  0  3           0  0  0
    2.4107   -1.2110   -1.9028 N   0  0  0  0  0  3           0  0  0
    3.3105   -2.4968   -3.7395 N   0  0  0  0  0  3           0  0  0
   -0.9227   -2.4510    1.2667 N   0  0  2  0  0  3           0  0  0
    0.0000    0.0000    0.0000 N   0  0  2  0  0  3           0  0  0
   -1.2748   -5.6421    0.6697 C   0  0  0  0  0  4           0  0  0
   -1.7243   -6.6190   -0.2337 C   0  0  0  0  0  4           0  0  0
    3.3874   -2.7785   -5.0652 C   0  0  0  0  0  4           0  0  0
    3.6188   -3.7766   -7.2870 C   0  0  0  0  0  4           0  0  0
    3.0319   -1.2607   -3.1122 C   0  0  0  0  0  4           0  0  0
    2.1380    0.0000   -1.3533 C   0  0  0  0  0  4           0  0  0
    3.3270   -2.4338   -7.2617 C   0  0  0  0  0  4           0  0  0
   -2.0693   -4.5043    0.8989 C   0  0  0  0  0  4           0  0  0
   -2.9479   -6.4632   -0.8926 C   0  0  0  0  0  4           0  0  0
    3.3723   -0.0908   -3.7945 C   0  0  0  0  0  4           0  0  0
    2.4703    1.1971   -1.9752 C   0  0  0  0  0  4           0  0  0
   -3.2947   -4.3566    0.2328 C   0  0  0  0  0  4           0  0  0
   -3.7290   -5.3342   -0.6595 C   0  0  0  0  0  4           0  0  0
    3.0924    1.1425   -3.2146 C   0  0  0  0  0  4           0  0  0
   -1.6756   -3.4570    1.8460 C   0  0  0  0  0  4           0  0  0
    1.4663    0.0000   -0.0000 C   0  0  0  0  0  4           0  0  0
   -0.4608   -1.3342    2.0880 C   0  0  0  0  0  4           0  0  0
   -0.3957   -2.4814   -0.1022 C   0  0  0  0  0  4           0  0  0
   -0.5895   -0.0000    1.3500 C   0  0  0  0  0  4           0  0  0
   -0.5485   -1.1194   -0.7824 C   0  0  0  0  0  4           0  0  0
  1 10  1  0     0  0
  2 11  1  0     0  0
  3 12  1  0     0  0
  3 13  1  0     0  0
  4 24  2  0     0  0
  5 12  2  0     0  0
  5 16  1  0     0  0
  6 14  1  0     0  0
  6 15  2  0     0  0
  7 12  1  0     0  0
  7 14  1  0     0  0
  8 24  1  0     0  0
  8 26  1  0     0  0
  8 27  1  0     0  0
  9 25  1  0     0  0
  9 28  1  0     0  0
  9 29  1  0     0  0
 10 11  2  0     0  0
 10 17  1  0     0  0
 11 18  1  0     0  0
 13 16  2  0     0  0
 14 19  2  0     0  0
 15 20  1  0     0  0
 15 25  1  0     0  0
 17 21  2  0     0  0
 17 24  1  0     0  0
 18 22  2  0     0  0
 19 23  1  0     0  0
 20 23  2  0     0  0
 21 22  1  0     0  0
 26 28  1  0     0  0
 27 29  1  0     0  0
M  END
> <standard_type>
pIC50

> <# Confs.>
25

> <canonical_smiles>
O=C(C1=CC=CC(Cl)=C1Cl)N(CC2)CCN2CC3=NC(NC4=NC=CS4)=CC=C3

> <standard_relation>
=

> <Publication_ID>
nan

> <predicted_activity_value>
6.275724130399211

> <actual_activity_value>
6.698970004336019

> <Compound>
38

> <standard_units>
nM

> hash
457231127230834412

$$$$
38_
XXILIB    08252103423D 0   0.00000     0.00000

 29 32  0     1  0            999 V2000
   -2.2392   -4.5635    1.2196 Cl  0  0  0  0  0  1           0  0  0
   -3.3688   -6.7493   -0.8282 Cl  0  0  0  0  0  1           0  0  0
    3.7427   -2.7432    6.6234 S   0  0  0  0  0  2           0  0  0
   -4.2226   -1.6979    2.1081 O   0  0  0  0  0  2           0  0  0
    3.1978   -4.2668    4.6260 N   0  0  0  0  0  3           0  0  0
    2.4107   -1.0424    2.0002 N   0  0  0  0  0  3           0  0  0
    3.3105   -1.9901    4.0320 N   0  0  0  0  0  3           0  0  0
   -2.6075   -1.0680    0.5484 N   0  0  2  0  0  3           0  0  0
    0.0000    0.0000    0.0000 N   0  0  2  0  0  3           0  0  0
   -3.5275   -4.1725    0.1246 C   0  0  0  0  0  4           0  0  0
   -4.0005   -5.1379   -0.7792 C   0  0  0  0  0  4           0  0  0
    3.3874   -2.9973    4.9388 C   0  0  0  0  0  4           0  0  0
    3.6188   -4.4224    6.9141 C   0  0  0  0  0  4           0  0  0
    3.0319   -2.0649    2.6479 C   0  0  0  0  0  4           0  0  0
    2.1380   -1.1720    0.6767 C   0  0  0  0  0  4           0  0  0
    3.3270   -5.0719    5.7386 C   0  0  0  0  0  4           0  0  0
   -4.0836   -2.8808    0.0998 C   0  0  0  0  0  4           0  0  0
   -5.0140   -4.8188   -1.6883 C   0  0  0  0  0  4           0  0  0
    3.3723   -3.2407    1.9759 C   0  0  0  0  0  4           0  0  0
    2.4703   -2.3091   -0.0491 C   0  0  0  0  0  4           0  0  0
   -5.0993   -2.5701   -0.8162 C   0  0  0  0  0  4           0  0  0
   -5.5600   -3.5379   -1.7059 C   0  0  0  0  0  4           0  0  0
    3.0924   -3.3551    0.6179 C   0  0  0  0  0  4           0  0  0
   -3.6569   -1.8309    1.0294 C   0  0  0  0  0  4           0  0  0
    1.4663   -0.0000    0.0000 C   0  0  0  0  0  4           0  0  0
   -2.0707    0.0224    1.3564 C   0  0  0  0  0  4           0  0  0
   -2.0334   -1.1745   -0.7953 C   0  0  0  0  0  4           0  0  0
   -0.5423    0.0000    1.3718 C   0  0  0  0  0  4           0  0  0
   -0.5050   -1.1697   -0.7404 C   0  0  0  0  0  4           0  0  0
  1 10  1  0     0  0
  2 11  1  0     0  0
  3 12  1  0     0  0
  3 13  1  0     0  0
  4 24  2  0     0  0
  5 12  2  0     0  0
  5 16  1  0     0  0
  6 14  1  0     0  0
  6 15  2  0     0  0
  7 12  1  0     0  0
  7 14  1  0     0  0
  8 24  1  0     0  0
  8 26  1  0     0  0
  8 27  1  0     0  0
  9 25  1  0     0  0
  9 28  1  0     0  0
  9 29  1  0     0  0
 10 11  2  0     0  0
 10 17  1  0     0  0
 11 18  1  0     0  0
 13 16  2  0     0  0
 14 19  2  0     0  0
 15 20  1  0     0  0
 15 25  1  0     0  0
 17 21  2  0     0  0
 17 24  1  0     0  0
 18 22  2  0     0  0
 19 23  1  0     0  0
 20 23  2  0     0  0
 21 22  1  0     0  0
 26 28  1  0     0  0
 27 29  1  0     0  0
M  END
> <standard_type>
pIC50

> <# Confs.>
25

> <canonical_smiles>
O=C(C1=CC=CC(Cl)=C1Cl)N(CC2)CCN2CC3=NC(NC4=NC=CS4)=CC=C3

> <standard_relation>
=

> <Publication_ID>
nan

> <predicted_activity_value>
6.275724130399211

> <actual_activity_value>
6.698970004336019

> <Compound>
38

> <standard_units>
nM

> hash
457231127230834412

$$$$
38_
XXILIB    08252103423D 0   0.00000     0.00000

 29 32  0     1  0            999 V2000
    0.2649   -5.8215    1.4499 Cl  0  0  0  0  0  1           0  0  0
   -0.8093   -8.0461   -0.5860 Cl  0  0  0  0  0  1           0  0  0
    6.6355   -3.4322   -4.2516 S   0  0  0  0  0  2           0  0  0
   -2.0188   -3.5293    3.0199 O   0  0  0  0  0  2           0  0  0
    4.6779   -2.1164   -5.2736 N   0  0  0  0  0  3           0  0  0
    3.1778   -0.8563   -1.5221 N   0  0  0  0  0  3           0  0  0
    4.8947   -1.7730   -2.9532 N   0  0  0  0  0  3           0  0  0
   -0.9227   -2.4510    1.2667 N   0  0  2  0  0  3           0  0  0
    0.0000    0.0000    0.0000 N   0  0  2  0  0  3           0  0  0
   -1.2748   -5.6421    0.6697 C   0  0  0  0  0  4           0  0  0
   -1.7243   -6.6190   -0.2337 C   0  0  0  0  0  4           0  0  0
    5.2866   -2.3403   -4.1225 C   0  0  0  0  0  4           0  0  0
    6.3549   -3.5979   -5.9289 C   0  0  0  0  0  4           0  0  0
    3.8255   -0.8782   -2.7183 C   0  0  0  0  0  4           0  0  0
    2.1380    0.0000   -1.3533 C   0  0  0  0  0  4           0  0  0
    5.2783   -2.8253   -6.2932 C   0  0  0  0  0  4           0  0  0
   -2.0693   -4.5043    0.8989 C   0  0  0  0  0  4           0  0  0
   -2.9479   -6.4632   -0.8926 C   0  0  0  0  0  4           0  0  0
    3.4245   -0.0499   -3.7686 C   0  0  0  0  0  4           0  0  0
    1.7065    0.8614   -2.3543 C   0  0  0  0  0  4           0  0  0
   -3.2947   -4.3566    0.2328 C   0  0  0  0  0  4           0  0  0
   -3.7290   -5.3342   -0.6595 C   0  0  0  0  0  4           0  0  0
    2.3616    0.8272   -3.5773 C   0  0  0  0  0  4           0  0  0
   -1.6756   -3.4570    1.8460 C   0  0  0  0  0  4           0  0  0
    1.4663    0.0000    0.0000 C   0  0  0  0  0  4           0  0  0
   -0.4608   -1.3342    2.0880 C   0  0  0  0  0  4           0  0  0
   -0.3957   -2.4814   -0.1022 C   0  0  0  0  0  4           0  0  0
   -0.5895   -0.0000    1.3500 C   0  0  0  0  0  4           0  0  0
   -0.5485   -1.1194   -0.7824 C   0  0  0  0  0  4           0  0  0
  1 10  1  0     0  0
  2 11  1  0     0  0
  3 12  1  0     0  0
  3 13  1  0     0  0
  4 24  2  0     0  0
  5 12  2  0     0  0
  5 16  1  0     0  0
  6 14  1  0     0  0
  6 15  2  0     0  0
  7 12  1  0     0  0
  7 14  1  0     0  0
  8 24  1  0     0  0
  8 26  1  0     0  0
  8 27  1  0     0  0
  9 25  1  0     0  0
  9 28  1  0     0  0
  9 29  1  0     0  0
 10 11  2  0     0  0
 10 17  1  0     0  0
 11 18  1  0     0  0
 13 16  2  0     0  0
 14 19  2  0     0  0
 15 20  1  0     0  0
 15 25  1  0     0  0
 17 21  2  0     0  0
 17 24  1  0     0  0
 18 22  2  0     0  0
 19 23  1  0     0  0
 20 23  2  0     0  0
 21 22  1  0     0  0
 26 28  1  0     0  0
 27 29  1  0     0  0
M  END
> <standard_type>
pIC50

> <# Confs.>
25

> <canonical_smiles>
O=C(C1=CC=CC(Cl)=C1Cl)N(CC2)CCN2CC3=NC(NC4=NC=CS4)=CC=C3

> <standard_relation>
=

> <Publication_ID>
nan

> <predicted_activity_value>
6.275724130399211

> <actual_activity_value>
6.698970004336019

> <Compound>
38

> <standard_units>
nM

> hash
457231127230834412

$$$$
38_
XXILIB    08252103423D 0   0.00000     0.00000

 29 32  0     1  0            999 V2000
   -2.2392   -4.5635    1.2196 Cl  0  0  0  0  0  1           0  0  0
   -3.3688   -6.7493   -0.8282 Cl  0  0  0  0  0  1           0  0  0
    1.1922   -3.8673   -2.6888 S   0  0  0  0  0  2           0  0  0
   -4.2226   -1.6979    2.1081 O   0  0  0  0  0  2           0  0  0
    2.9896   -4.7638   -4.2932 N   0  0  0  0  0  3           0  0  0
    2.4107   -1.2110   -1.9028 N   0  0  0  0  0  3           0  0  0
    3.3105   -2.4968   -3.7395 N   0  0  0  0  0  3           0  0  0
   -2.6075   -1.0680    0.5484 N   0  0  2  0  0  3           0  0  0
    0.0000    0.0000    0.0000 N   0  0  2  0  0  3           0  0  0
   -3.5275   -4.1725    0.1246 C   0  0  0  0  0  4           0  0  0
   -4.0005   -5.1379   -0.7792 C   0  0  0  0  0  4           0  0  0
    2.6276   -3.6668   -3.6522 C   0  0  0  0  0  4           0  0  0
    1.0748   -5.4985   -3.1838 C   0  0  0  0  0  4           0  0  0
    3.0319   -1.2607   -3.1122 C   0  0  0  0  0  4           0  0  0
    2.1380    0.0000   -1.3533 C   0  0  0  0  0  4           0  0  0
    2.1147   -5.7976   -4.0310 C   0  0  0  0  0  4           0  0  0
   -4.0836   -2.8808    0.0998 C   0  0  0  0  0  4           0  0  0
   -5.0140   -4.8188   -1.6883 C   0  0  0  0  0  4           0  0  0
    3.3723   -0.0908   -3.7945 C   0  0  0  0  0  4           0  0  0
    2.4703    1.1971   -1.9752 C   0  0  0  0  0  4           0  0  0
   -5.0993   -2.5701   -0.8162 C   0  0  0  0  0  4           0  0  0
   -5.5600   -3.5379   -1.7059 C   0  0  0  0  0  4           0  0  0
    3.0924    1.1425   -3.2146 C   0  0  0  0  0  4           0  0  0
   -3.6569   -1.8309    1.0294 C   0  0  0  0  0  4           0  0  0
    1.4663    0.0000   -0.0000 C   0  0  0  0  0  4           0  0  0
   -2.0707    0.0224    1.3564 C   0  0  0  0  0  4           0  0  0
   -2.0334   -1.1745   -0.7953 C   0  0  0  0  0  4           0  0  0
   -0.5423    0.0000    1.3718 C   0  0  0  0  0  4           0  0  0
   -0.5050   -1.1697   -0.7404 C   0  0  0  0  0  4           0  0  0
  1 10  1  0     0  0
  2 11  1  0     0  0
  3 12  1  0     0  0
  3 13  1  0     0  0
  4 24  2  0     0  0
  5 12  2  0     0  0
  5 16  1  0     0  0
  6 14  1  0     0  0
  6 15  2  0     0  0
  7 12  1  0     0  0
  7 14  1  0     0  0
  8 24  1  0     0  0
  8 26  1  0     0  0
  8 27  1  0     0  0
  9 25  1  0     0  0
  9 28  1  0     0  0
  9 29  1  0     0  0
 10 11  2  0     0  0
 10 17  1  0     0  0
 11 18  1  0     0  0
 13 16  2  0     0  0
 14 19  2  0     0  0
 15 20  1  0     0  0
 15 25  1  0     0  0
 17 21  2  0     0  0
 17 24  1  0     0  0
 18 22  2  0     0  0
 19 23  1  0     0  0
 20 23  2  0     0  0
 21 22  1  0     0  0
 26 28  1  0     0  0
 27 29  1  0     0  0
M  END
> <standard_type>
pIC50

> <# Confs.>
25

> <canonical_smiles>
O=C(C1=CC=CC(Cl)=C1Cl)N(CC2)CCN2CC3=NC(NC4=NC=CS4)=CC=C3

> <standard_relation>
=

> <Publication_ID>
nan

> <predicted_activity_value>
6.275724130399211

> <actual_activity_value>
6.698970004336019

> <Compound>
38

> <standard_units>
nM

> hash
457231127230834412

$$$$
38_
XXILIB    08252103423D 0   0.00000     0.00000

 29 32  0     1  0            999 V2000
   -4.3810   -3.1271    0.4020 Cl  0  0  0  0  0  1           0  0  0
   -5.0223   -5.4652   -1.6883 Cl  0  0  0  0  0  1           0  0  0
    6.6355   -3.4322   -4.2516 S   0  0  0  0  0  2           0  0  0
   -2.0188   -3.5293    3.0199 O   0  0  0  0  0  2           0  0  0
    4.6779   -2.1164   -5.2736 N   0  0  0  0  0  3           0  0  0
    3.1778   -0.8563   -1.5221 N   0  0  0  0  0  3           0  0  0
    4.8947   -1.7730   -2.9532 N   0  0  0  0  0  3           0  0  0
   -0.9227   -2.4510    1.2667 N   0  0  2  0  0  3           0  0  0
    0.0000    0.0000    0.0000 N   0  0  2  0  0  3           0  0  0
   -3.2654   -4.4346    0.1621 C   0  0  0  0  0  4           0  0  0
   -3.5694   -5.4614   -0.7466 C   0  0  0  0  0  4           0  0  0
    5.2866   -2.3403   -4.1225 C   0  0  0  0  0  4           0  0  0
    6.3549   -3.5979   -5.9289 C   0  0  0  0  0  4           0  0  0
    3.8255   -0.8782   -2.7183 C   0  0  0  0  0  4           0  0  0
    2.1380    0.0000   -1.3533 C   0  0  0  0  0  4           0  0  0
    5.2783   -2.8253   -6.2932 C   0  0  0  0  0  4           0  0  0
   -2.0693   -4.5043    0.8989 C   0  0  0  0  0  4           0  0  0
   -2.6912   -6.5361   -0.9187 C   0  0  0  0  0  4           0  0  0
    3.4245   -0.0499   -3.7686 C   0  0  0  0  0  4           0  0  0
    1.7065    0.8614   -2.3543 C   0  0  0  0  0  4           0  0  0
   -1.1953   -5.5864    0.7199 C   0  0  0  0  0  4           0  0  0
   -1.5086   -6.5972   -0.1860 C   0  0  0  0  0  4           0  0  0
    2.3616    0.8272   -3.5773 C   0  0  0  0  0  4           0  0  0
   -1.6756   -3.4570    1.8460 C   0  0  0  0  0  4           0  0  0
    1.4663    0.0000    0.0000 C   0  0  0  0  0  4           0  0  0
   -0.4608   -1.3342    2.0880 C   0  0  0  0  0  4           0  0  0
   -0.3957   -2.4814   -0.1022 C   0  0  0  0  0  4           0  0  0
   -0.5895   -0.0000    1.3500 C   0  0  0  0  0  4           0  0  0
   -0.5485   -1.1194   -0.7824 C   0  0  0  0  0  4           0  0  0
  1 10  1  0     0  0
  2 11  1  0     0  0
  3 12  1  0     0  0
  3 13  1  0     0  0
  4 24  2  0     0  0
  5 12  2  0     0  0
  5 16  1  0     0  0
  6 14  1  0     0  0
  6 15  2  0     0  0
  7 12  1  0     0  0
  7 14  1  0     0  0
  8 24  1  0     0  0
  8 26  1  0     0  0
  8 27  1  0     0  0
  9 25  1  0     0  0
  9 28  1  0     0  0
  9 29  1  0     0  0
 10 11  2  0     0  0
 10 17  1  0     0  0
 11 18  1  0     0  0
 13 16  2  0     0  0
 14 19  2  0     0  0
 15 20  1  0     0  0
 15 25  1  0     0  0
 17 21  2  0     0  0
 17 24  1  0     0  0
 18 22  2  0     0  0
 19 23  1  0     0  0
 20 23  2  0     0  0
 21 22  1  0     0  0
 26 28  1  0     0  0
 27 29  1  0     0  0
M  END
> <standard_type>
pIC50

> <# Confs.>
25

> <canonical_smiles>
O=C(C1=CC=CC(Cl)=C1Cl)N(CC2)CCN2CC3=NC(NC4=NC=CS4)=CC=C3

> <standard_relation>
=

> <Publication_ID>
nan

> <predicted_activity_value>
6.275724130399211

> <actual_activity_value>
6.698970004336019

> <Compound>
38

> <standard_units>
nM

> hash
457231127230834412

$$$$
38_
XXILIB    08252103423D 0   0.00000     0.00000

 29 32  0     1  0            999 V2000
   -5.9036   -1.1380   -0.9670 Cl  0  0  0  0  0  1           0  0  0
   -6.6331   -3.5266   -2.9695 Cl  0  0  0  0  0  1           0  0  0
    3.7427   -2.7432    6.6234 S   0  0  0  0  0  2           0  0  0
   -4.2226   -1.6979    2.1081 O   0  0  0  0  0  2           0  0  0
    3.1978   -4.2668    4.6260 N   0  0  0  0  0  3           0  0  0
    2.4107   -1.0424    2.0002 N   0  0  0  0  0  3           0  0  0
    3.3105   -1.9901    4.0320 N   0  0  0  0  0  3           0  0  0
   -2.6075   -1.0680    0.5484 N   0  0  2  0  0  3           0  0  0
    0.0000    0.0000    0.0000 N   0  0  2  0  0  3           0  0  0
   -5.0749   -2.6599   -0.8733 C   0  0  0  0  0  4           0  0  0
   -5.4184   -3.7034   -1.7483 C   0  0  0  0  0  4           0  0  0
    3.3874   -2.9973    4.9388 C   0  0  0  0  0  4           0  0  0
    3.6188   -4.4224    6.9141 C   0  0  0  0  0  4           0  0  0
    3.0319   -2.0649    2.6479 C   0  0  0  0  0  4           0  0  0
    2.1380   -1.1720    0.6767 C   0  0  0  0  0  4           0  0  0
    3.3270   -5.0719    5.7386 C   0  0  0  0  0  4           0  0  0
   -4.0836   -2.8808    0.0998 C   0  0  0  0  0  4           0  0  0
   -4.7793   -4.9438   -1.6549 C   0  0  0  0  0  4           0  0  0
    3.3723   -3.2407    1.9759 C   0  0  0  0  0  4           0  0  0
    2.4703   -2.3091   -0.0491 C   0  0  0  0  0  4           0  0  0
   -3.4487   -4.1284    0.1861 C   0  0  0  0  0  4           0  0  0
   -3.7982   -5.1541   -0.6893 C   0  0  0  0  0  4           0  0  0
    3.0924   -3.3551    0.6179 C   0  0  0  0  0  4           0  0  0
   -3.6569   -1.8309    1.0294 C   0  0  0  0  0  4           0  0  0
    1.4663   -0.0000    0.0000 C   0  0  0  0  0  4           0  0  0
   -2.0707    0.0224    1.3564 C   0  0  0  0  0  4           0  0  0
   -2.0334   -1.1745   -0.7953 C   0  0  0  0  0  4           0  0  0
   -0.5423    0.0000    1.3718 C   0  0  0  0  0  4           0  0  0
   -0.5050   -1.1697   -0.7404 C   0  0  0  0  0  4           0  0  0
  1 10  1  0     0  0
  2 11  1  0     0  0
  3 12  1  0     0  0
  3 13  1  0     0  0
  4 24  2  0     0  0
  5 12  2  0     0  0
  5 16  1  0     0  0
  6 14  1  0     0  0
  6 15  2  0     0  0
  7 12  1  0     0  0
  7 14  1  0     0  0
  8 24  1  0     0  0
  8 26  1  0     0  0
  8 27  1  0     0  0
  9 25  1  0     0  0
  9 28  1  0     0  0
  9 29  1  0     0  0
 10 11  2  0     0  0
 10 17  1  0     0  0
 11 18  1  0     0  0
 13 16  2  0     0  0
 14 19  2  0     0  0
 15 20  1  0     0  0
 15 25  1  0     0  0
 17 21  2  0     0  0
 17 24  1  0     0  0
 18 22  2  0     0  0
 19 23  1  0     0  0
 20 23  2  0     0  0
 21 22  1  0     0  0
 26 28  1  0     0  0
 27 29  1  0     0  0
M  END
> <standard_type>
pIC50

> <# Confs.>
25

> <canonical_smiles>
O=C(C1=CC=CC(Cl)=C1Cl)N(CC2)CCN2CC3=NC(NC4=NC=CS4)=CC=C3

> <standard_relation>
=

> <Publication_ID>
nan

> <predicted_activity_value>
6.275724130399211

> <actual_activity_value>
6.698970004336019

> <Compound>
38

> <standard_units>
nM

> hash
457231127230834412

$$$$
38_
XXILIB    08252103423D 0   0.00000     0.00000

 29 32  0     1  0            999 V2000
   -4.3810   -3.1271    0.4020 Cl  0  0  0  0  0  1           0  0  0
   -5.0223   -5.4652   -1.6883 Cl  0  0  0  0  0  1           0  0  0
    3.7427   -4.3645   -5.6874 S   0  0  0  0  0  2           0  0  0
   -2.0188   -3.5293    3.0199 O   0  0  0  0  0  2           0  0  0
    3.1978   -1.8728   -6.0082 N   0  0  0  0  0  3           0  0  0
    2.4107   -1.2110   -1.9028 N   0  0  0  0  0  3           0  0  0
    3.3105   -2.4968   -3.7395 N   0  0  0  0  0  3           0  0  0
   -0.9227   -2.4510    1.2667 N   0  0  2  0  0  3           0  0  0
    0.0000    0.0000    0.0000 N   0  0  2  0  0  3           0  0  0
   -3.2654   -4.4346    0.1621 C   0  0  0  0  0  4           0  0  0
   -3.5694   -5.4614   -0.7466 C   0  0  0  0  0  4           0  0  0
    3.3874   -2.7785   -5.0652 C   0  0  0  0  0  4           0  0  0
    3.6188   -3.7766   -7.2870 C   0  0  0  0  0  4           0  0  0
    3.0319   -1.2607   -3.1122 C   0  0  0  0  0  4           0  0  0
    2.1380    0.0000   -1.3533 C   0  0  0  0  0  4           0  0  0
    3.3270   -2.4338   -7.2617 C   0  0  0  0  0  4           0  0  0
   -2.0693   -4.5043    0.8989 C   0  0  0  0  0  4           0  0  0
   -2.6912   -6.5361   -0.9187 C   0  0  0  0  0  4           0  0  0
    3.3723   -0.0908   -3.7945 C   0  0  0  0  0  4           0  0  0
    2.4703    1.1971   -1.9752 C   0  0  0  0  0  4           0  0  0
   -1.1953   -5.5864    0.7199 C   0  0  0  0  0  4           0  0  0
   -1.5086   -6.5972   -0.1860 C   0  0  0  0  0  4           0  0  0
    3.0924    1.1425   -3.2146 C   0  0  0  0  0  4           0  0  0
   -1.6756   -3.4570    1.8460 C   0  0  0  0  0  4           0  0  0
    1.4663    0.0000   -0.0000 C   0  0  0  0  0  4           0  0  0
   -0.4608   -1.3342    2.0880 C   0  0  0  0  0  4           0  0  0
   -0.3957   -2.4814   -0.1022 C   0  0  0  0  0  4           0  0  0
   -0.5895   -0.0000    1.3500 C   0  0  0  0  0  4           0  0  0
   -0.5485   -1.1194   -0.7824 C   0  0  0  0  0  4           0  0  0
  1 10  1  0     0  0
  2 11  1  0     0  0
  3 12  1  0     0  0
  3 13  1  0     0  0
  4 24  2  0     0  0
  5 12  2  0     0  0
  5 16  1  0     0  0
  6 14  1  0     0  0
  6 15  2  0     0  0
  7 12  1  0     0  0
  7 14  1  0     0  0
  8 24  1  0     0  0
  8 26  1  0     0  0
  8 27  1  0     0  0
  9 25  1  0     0  0
  9 28  1  0     0  0
  9 29  1  0     0  0
 10 11  2  0     0  0
 10 17  1  0     0  0
 11 18  1  0     0  0
 13 16  2  0     0  0
 14 19  2  0     0  0
 15 20  1  0     0  0
 15 25  1  0     0  0
 17 21  2  0     0  0
 17 24  1  0     0  0
 18 22  2  0     0  0
 19 23  1  0     0  0
 20 23  2  0     0  0
 21 22  1  0     0  0
 26 28  1  0     0  0
 27 29  1  0     0  0
M  END
> <standard_type>
pIC50

> <# Confs.>
25

> <canonical_smiles>
O=C(C1=CC=CC(Cl)=C1Cl)N(CC2)CCN2CC3=NC(NC4=NC=CS4)=CC=C3

> <standard_relation>
=

> <Publication_ID>
nan

> <predicted_activity_value>
6.275724130399211

> <actual_activity_value>
6.698970004336019

> <Compound>
38

> <standard_units>
nM

> hash
457231127230834412

$$$$
38_
XXILIB    08252103423D 0   0.00000     0.00000

 29 32  0     1  0            999 V2000
    0.2649   -5.8215    1.4499 Cl  0  0  0  0  0  1           0  0  0
   -0.8093   -8.0461   -0.5860 Cl  0  0  0  0  0  1           0  0  0
    4.6196    2.3663    6.4058 S   0  0  0  0  0  2           0  0  0
   -2.0188   -3.5293    3.0199 O   0  0  0  0  0  2           0  0  0
    5.2046    3.4042    4.1280 N   0  0  0  0  0  3           0  0  0
    2.4107    1.0424    2.0002 N   0  0  0  0  0  3           0  0  0
    3.3295    1.9819    4.0273 N   0  0  0  0  0  3           0  0  0
   -0.9227   -2.4510    1.2667 N   0  0  2  0  0  3           0  0  0
    0.0000    0.0000    0.0000 N   0  0  2  0  0  3           0  0  0
   -1.2748   -5.6421    0.6697 C   0  0  0  0  0  4           0  0  0
   -1.7243   -6.6190   -0.2337 C   0  0  0  0  0  4           0  0  0
    4.3389    2.5883    4.7027 C   0  0  0  0  0  4           0  0  0
    5.9686    3.4124    6.3309 C   0  0  0  0  0  4           0  0  0
    2.9984    2.0793    2.6562 C   0  0  0  0  0  4           0  0  0
    2.1380    1.1720    0.6767 C   0  0  0  0  0  4           0  0  0
    6.1249    3.8693    5.0443 C   0  0  0  0  0  4           0  0  0
   -2.0693   -4.5043    0.8989 C   0  0  0  0  0  4           0  0  0
   -2.9479   -6.4632   -0.8926 C   0  0  0  0  0  4           0  0  0
    3.3359    3.2564    1.9849 C   0  0  0  0  0  4           0  0  0
    2.4324    2.3254   -0.0397 C   0  0  0  0  0  4           0  0  0
   -3.2947   -4.3566    0.2328 C   0  0  0  0  0  4           0  0  0
   -3.7290   -5.3342   -0.6595 C   0  0  0  0  0  4           0  0  0
    3.0433    3.3762    0.6300 C   0  0  0  0  0  4           0  0  0
   -1.6756   -3.4570    1.8460 C   0  0  0  0  0  4           0  0  0
    1.4663    0.0000    0.0000 C   0  0  0  0  0  4           0  0  0
   -0.4608   -1.3342    2.0880 C   0  0  0  0  0  4           0  0  0
   -0.3957   -2.4814   -0.1022 C   0  0  0  0  0  4           0  0  0
   -0.5895   -0.0000    1.3500 C   0  0  0  0  0  4           0  0  0
   -0.5485   -1.1194   -0.7824 C   0  0  0  0  0  4           0  0  0
  1 10  1  0     0  0
  2 11  1  0     0  0
  3 12  1  0     0  0
  3 13  1  0     0  0
  4 24  2  0     0  0
  5 12  2  0     0  0
  5 16  1  0     0  0
  6 14  1  0     0  0
  6 15  2  0     0  0
  7 12  1  0     0  0
  7 14  1  0     0  0
  8 24  1  0     0  0
  8 26  1  0     0  0
  8 27  1  0     0  0
  9 25  1  0     0  0
  9 28  1  0     0  0
  9 29  1  0     0  0
 10 11  2  0     0  0
 10 17  1  0     0  0
 11 18  1  0     0  0
 13 16  2  0     0  0
 14 19  2  0     0  0
 15 20  1  0     0  0
 15 25  1  0     0  0
 17 21  2  0     0  0
 17 24  1  0     0  0
 18 22  2  0     0  0
 19 23  1  0     0  0
 20 23  2  0     0  0
 21 22  1  0     0  0
 26 28  1  0     0  0
 27 29  1  0     0  0
M  END
> <standard_type>
pIC50

> <# Confs.>
25

> <canonical_smiles>
O=C(C1=CC=CC(Cl)=C1Cl)N(CC2)CCN2CC3=NC(NC4=NC=CS4)=CC=C3

> <standard_relation>
=

> <Publication_ID>
nan

> <predicted_activity_value>
6.275724130399211

> <actual_activity_value>
6.698970004336019

> <Compound>
38

> <standard_units>
nM

> hash
457231127230834412

$$$$
38_
XXILIB    08252103423D 0   0.00000     0.00000

 29 32  0     1  0            999 V2000
    0.2649   -5.8215    1.4499 Cl  0  0  0  0  0  1           0  0  0
   -0.8093   -8.0461   -0.5860 Cl  0  0  0  0  0  1           0  0  0
    7.2555    2.0454    4.3449 S   0  0  0  0  0  2           0  0  0
   -2.0188   -3.5293    3.0199 O   0  0  0  0  0  2           0  0  0
    6.0969    3.6910    2.7455 N   0  0  0  0  0  3           0  0  0
    3.1778    0.8900    1.5027 N   0  0  0  0  0  3           0  0  0
    4.9081    1.6728    2.9957 N   0  0  0  0  0  3           0  0  0
   -0.9227   -2.4510    1.2667 N   0  0  2  0  0  3           0  0  0
    0.0000    0.0000    0.0000 N   0  0  2  0  0  3           0  0  0
   -1.2748   -5.6421    0.6697 C   0  0  0  0  0  4           0  0  0
   -1.7243   -6.6190   -0.2337 C   0  0  0  0  0  4           0  0  0
    5.9594    2.4865    3.2705 C   0  0  0  0  0  4           0  0  0
    8.0164    3.5489    4.0616 C   0  0  0  0  0  4           0  0  0
    3.8018    1.9120    2.1485 C   0  0  0  0  0  4           0  0  0
    2.1380    1.1720    0.6767 C   0  0  0  0  0  4           0  0  0
    7.2567    4.2914    3.1897 C   0  0  0  0  0  4           0  0  0
   -2.0693   -4.5043    0.8989 C   0  0  0  0  0  4           0  0  0
   -2.9479   -6.4632   -0.8926 C   0  0  0  0  0  4           0  0  0
    3.3988    3.2355    1.9587 C   0  0  0  0  0  4           0  0  0
    1.6797    2.4662    0.4637 C   0  0  0  0  0  4           0  0  0
   -3.2947   -4.3566    0.2328 C   0  0  0  0  0  4           0  0  0
   -3.7290   -5.3342   -0.6595 C   0  0  0  0  0  4           0  0  0
    2.3269    3.5072    1.1144 C   0  0  0  0  0  4           0  0  0
   -1.6756   -3.4570    1.8460 C   0  0  0  0  0  4           0  0  0
    1.4663    0.0000   -0.0000 C   0  0  0  0  0  4           0  0  0
   -0.4608   -1.3342    2.0880 C   0  0  0  0  0  4           0  0  0
   -0.3957   -2.4814   -0.1022 C   0  0  0  0  0  4           0  0  0
   -0.5895   -0.0000    1.3500 C   0  0  0  0  0  4           0  0  0
   -0.5485   -1.1194   -0.7824 C   0  0  0  0  0  4           0  0  0
  1 10  1  0     0  0
  2 11  1  0     0  0
  3 12  1  0     0  0
  3 13  1  0     0  0
  4 24  2  0     0  0
  5 12  2  0     0  0
  5 16  1  0     0  0
  6 14  1  0     0  0
  6 15  2  0     0  0
  7 12  1  0     0  0
  7 14  1  0     0  0
  8 24  1  0     0  0
  8 26  1  0     0  0
  8 27  1  0     0  0
  9 25  1  0     0  0
  9 28  1  0     0  0
  9 29  1  0     0  0
 10 11  2  0     0  0
 10 17  1  0     0  0
 11 18  1  0     0  0
 13 16  2  0     0  0
 14 19  2  0     0  0
 15 20  1  0     0  0
 15 25  1  0     0  0
 17 21  2  0     0  0
 17 24  1  0     0  0
 18 22  2  0     0  0
 19 23  1  0     0  0
 20 23  2  0     0  0
 21 22  1  0     0  0
 26 28  1  0     0  0
 27 29  1  0     0  0
M  END
> <standard_type>
pIC50

> <# Confs.>
25

> <canonical_smiles>
O=C(C1=CC=CC(Cl)=C1Cl)N(CC2)CCN2CC3=NC(NC4=NC=CS4)=CC=C3

> <standard_relation>
=

> <Publication_ID>
nan

> <predicted_activity_value>
6.275724130399211

> <actual_activity_value>
6.698970004336019

> <Compound>
38

> <standard_units>
nM

> hash
457231127230834412

$$$$
38_
XXILIB    08252103423D 0   0.00000     0.00000

 29 32  0     1  0            999 V2000
   -3.8771   -4.8954    0.7589 Cl  0  0  0  0  0  1           0  0  0
   -5.8831   -5.8471   -1.5471 Cl  0  0  0  0  0  1           0  0  0
    3.7427   -4.3645   -5.6874 S   0  0  0  0  0  2           0  0  0
   -3.9006   -2.0804    2.2039 O   0  0  0  0  0  2           0  0  0
    3.1978   -1.8728   -6.0082 N   0  0  0  0  0  3           0  0  0
    2.4107   -1.2110   -1.9028 N   0  0  0  0  0  3           0  0  0
    3.3105   -2.4968   -3.7395 N   0  0  0  0  0  3           0  0  0
   -2.6075   -1.0680    0.5484 N   0  0  2  0  0  3           0  0  0
    0.0000    0.0000    0.0000 N   0  0  2  0  0  3           0  0  0
   -4.7225   -3.7360   -0.2171 C   0  0  0  0  0  4           0  0  0
   -5.5864   -4.1699   -1.2359 C   0  0  0  0  0  4           0  0  0
    3.3874   -2.7785   -5.0652 C   0  0  0  0  0  4           0  0  0
    3.6188   -3.7766   -7.2870 C   0  0  0  0  0  4           0  0  0
    3.0319   -1.2607   -3.1122 C   0  0  0  0  0  4           0  0  0
    2.1380    0.0000   -1.3533 C   0  0  0  0  0  4           0  0  0
    3.3270   -2.4338   -7.2617 C   0  0  0  0  0  4           0  0  0
   -4.5241   -2.3562   -0.0292 C   0  0  0  0  0  4           0  0  0
   -6.2433   -3.2410   -2.0491 C   0  0  0  0  0  4           0  0  0
    3.3723   -0.0908   -3.7945 C   0  0  0  0  0  4           0  0  0
    2.4703    1.1971   -1.9752 C   0  0  0  0  0  4           0  0  0
   -5.1869   -1.4323   -0.8503 C   0  0  0  0  0  4           0  0  0
   -6.0422   -1.8767   -1.8561 C   0  0  0  0  0  4           0  0  0
    3.0924    1.1425   -3.2146 C   0  0  0  0  0  4           0  0  0
   -3.6569   -1.8309    1.0294 C   0  0  0  0  0  4           0  0  0
    1.4663    0.0000   -0.0000 C   0  0  0  0  0  4           0  0  0
   -2.0707    0.0224    1.3564 C   0  0  0  0  0  4           0  0  0
   -2.0334   -1.1745   -0.7953 C   0  0  0  0  0  4           0  0  0
   -0.5423    0.0000    1.3718 C   0  0  0  0  0  4           0  0  0
   -0.5050   -1.1697   -0.7404 C   0  0  0  0  0  4           0  0  0
  1 10  1  0     0  0
  2 11  1  0     0  0
  3 12  1  0     0  0
  3 13  1  0     0  0
  4 24  2  0     0  0
  5 12  2  0     0  0
  5 16  1  0     0  0
  6 14  1  0     0  0
  6 15  2  0     0  0
  7 12  1  0     0  0
  7 14  1  0     0  0
  8 24  1  0     0  0
  8 26  1  0     0  0
  8 27  1  0     0  0
  9 25  1  0     0  0
  9 28  1  0     0  0
  9 29  1  0     0  0
 10 11  2  0     0  0
 10 17  1  0     0  0
 11 18  1  0     0  0
 13 16  2  0     0  0
 14 19  2  0     0  0
 15 20  1  0     0  0
 15 25  1  0     0  0
 17 21  2  0     0  0
 17 24  1  0     0  0
 18 22  2  0     0  0
 19 23  1  0     0  0
 20 23  2  0     0  0
 21 22  1  0     0  0
 26 28  1  0     0  0
 27 29  1  0     0  0
M  END
> <standard_type>
pIC50

> <# Confs.>
25

> <canonical_smiles>
O=C(C1=CC=CC(Cl)=C1Cl)N(CC2)CCN2CC3=NC(NC4=NC=CS4)=CC=C3

> <standard_relation>
=

> <Publication_ID>
nan

> <predicted_activity_value>
6.275724130399211

> <actual_activity_value>
6.698970004336019

> <Compound>
38

> <standard_units>
nM

> hash
457231127230834412

$$$$
38_
XXILIB    08252103423D 0   0.00000     0.00000

 29 32  0     1  0            999 V2000
   -4.3810   -3.1271    0.4020 Cl  0  0  0  0  0  1           0  0  0
   -5.0223   -5.4652   -1.6883 Cl  0  0  0  0  0  1           0  0  0
    7.2555    2.0454    4.3449 S   0  0  0  0  0  2           0  0  0
   -2.0188   -3.5293    3.0199 O   0  0  0  0  0  2           0  0  0
    6.0969    3.6910    2.7455 N   0  0  0  0  0  3           0  0  0
    3.1778    0.8900    1.5027 N   0  0  0  0  0  3           0  0  0
    4.9081    1.6728    2.9957 N   0  0  0  0  0  3           0  0  0
   -0.9227   -2.4510    1.2667 N   0  0  2  0  0  3           0  0  0
    0.0000    0.0000    0.0000 N   0  0  2  0  0  3           0  0  0
   -3.2654   -4.4346    0.1621 C   0  0  0  0  0  4           0  0  0
   -3.5694   -5.4614   -0.7466 C   0  0  0  0  0  4           0  0  0
    5.9594    2.4865    3.2705 C   0  0  0  0  0  4           0  0  0
    8.0164    3.5489    4.0616 C   0  0  0  0  0  4           0  0  0
    3.8018    1.9120    2.1485 C   0  0  0  0  0  4           0  0  0
    2.1380    1.1720    0.6767 C   0  0  0  0  0  4           0  0  0
    7.2567    4.2914    3.1897 C   0  0  0  0  0  4           0  0  0
   -2.0693   -4.5043    0.8989 C   0  0  0  0  0  4           0  0  0
   -2.6912   -6.5361   -0.9187 C   0  0  0  0  0  4           0  0  0
    3.3988    3.2355    1.9587 C   0  0  0  0  0  4           0  0  0
    1.6797    2.4662    0.4637 C   0  0  0  0  0  4           0  0  0
   -1.1953   -5.5864    0.7199 C   0  0  0  0  0  4           0  0  0
   -1.5086   -6.5972   -0.1860 C   0  0  0  0  0  4           0  0  0
    2.3269    3.5072    1.1144 C   0  0  0  0  0  4           0  0  0
   -1.6756   -3.4570    1.8460 C   0  0  0  0  0  4           0  0  0
    1.4663    0.0000   -0.0000 C   0  0  0  0  0  4           0  0  0
   -0.4608   -1.3342    2.0880 C   0  0  0  0  0  4           0  0  0
   -0.3957   -2.4814   -0.1022 C   0  0  0  0  0  4           0  0  0
   -0.5895   -0.0000    1.3500 C   0  0  0  0  0  4           0  0  0
   -0.5485   -1.1194   -0.7824 C   0  0  0  0  0  4           0  0  0
  1 10  1  0     0  0
  2 11  1  0     0  0
  3 12  1  0     0  0
  3 13  1  0     0  0
  4 24  2  0     0  0
  5 12  2  0     0  0
  5 16  1  0     0  0
  6 14  1  0     0  0
  6 15  2  0     0  0
  7 12  1  0     0  0
  7 14  1  0     0  0
  8 24  1  0     0  0
  8 26  1  0     0  0
  8 27  1  0     0  0
  9 25  1  0     0  0
  9 28  1  0     0  0
  9 29  1  0     0  0
 10 11  2  0     0  0
 10 17  1  0     0  0
 11 18  1  0     0  0
 13 16  2  0     0  0
 14 19  2  0     0  0
 15 20  1  0     0  0
 15 25  1  0     0  0
 17 21  2  0     0  0
 17 24  1  0     0  0
 18 22  2  0     0  0
 19 23  1  0     0  0
 20 23  2  0     0  0
 21 22  1  0     0  0
 26 28  1  0     0  0
 27 29  1  0     0  0
M  END
> <standard_type>
pIC50

> <# Confs.>
25

> <canonical_smiles>
O=C(C1=CC=CC(Cl)=C1Cl)N(CC2)CCN2CC3=NC(NC4=NC=CS4)=CC=C3

> <standard_relation>
=

> <Publication_ID>
nan

> <predicted_activity_value>
6.275724130399211

> <actual_activity_value>
6.698970004336019

> <Compound>
38

> <standard_units>
nM

> hash
457231127230834412

$$$$
38_
XXILIB    08252103423D 0   0.00000     0.00000

 29 32  0     1  0            999 V2000
   -2.2392   -4.5635    1.2196 Cl  0  0  0  0  0  1           0  0  0
   -3.3688   -6.7493   -0.8282 Cl  0  0  0  0  0  1           0  0  0
    1.1068    7.4285    1.1249 S   0  0  0  0  0  2           0  0  0
   -4.2226   -1.6979    2.1081 O   0  0  0  0  0  2           0  0  0
    2.3055    5.8529    2.7647 N   0  0  0  0  0  3           0  0  0
    1.6437    2.4058    0.4002 N   0  0  0  0  0  3           0  0  0
    1.7318    4.7960    0.7391 N   0  0  0  0  0  3           0  0  0
   -2.6075   -1.0680    0.5484 N   0  0  2  0  0  3           0  0  0
    0.0000    0.0000    0.0000 N   0  0  2  0  0  3           0  0  0
   -3.5275   -4.1725    0.1246 C   0  0  0  0  0  4           0  0  0
   -4.0005   -5.1379   -0.7792 C   0  0  0  0  0  4           0  0  0
    1.7669    5.8777    1.5585 C   0  0  0  0  0  4           0  0  0
    1.5709    8.0625    2.6423 C   0  0  0  0  0  4           0  0  0
    2.2285    3.4929    0.9720 C   0  0  0  0  0  4           0  0  0
    2.1380    1.1720    0.6767 C   0  0  0  0  0  4           0  0  0
    2.1952    7.0836    3.3777 C   0  0  0  0  0  4           0  0  0
   -4.0836   -2.8808    0.0998 C   0  0  0  0  0  4           0  0  0
   -5.0140   -4.8188   -1.6883 C   0  0  0  0  0  4           0  0  0
    3.3095    3.3524    1.8448 C   0  0  0  0  0  4           0  0  0
    3.2229    0.9713    1.5209 C   0  0  0  0  0  4           0  0  0
   -5.0993   -2.5701   -0.8162 C   0  0  0  0  0  4           0  0  0
   -5.5600   -3.5379   -1.7059 C   0  0  0  0  0  4           0  0  0
    3.8088    2.0817    2.1123 C   0  0  0  0  0  4           0  0  0
   -3.6569   -1.8309    1.0294 C   0  0  0  0  0  4           0  0  0
    1.4663    0.0000    0.0000 C   0  0  0  0  0  4           0  0  0
   -2.0707    0.0224    1.3564 C   0  0  0  0  0  4           0  0  0
   -2.0334   -1.1745   -0.7953 C   0  0  0  0  0  4           0  0  0
   -0.5423    0.0000    1.3718 C   0  0  0  0  0  4           0  0  0
   -0.5050   -1.1697   -0.7404 C   0  0  0  0  0  4           0  0  0
  1 10  1  0     0  0
  2 11  1  0     0  0
  3 12  1  0     0  0
  3 13  1  0     0  0
  4 24  2  0     0  0
  5 12  2  0     0  0
  5 16  1  0     0  0
  6 14  1  0     0  0
  6 15  2  0     0  0
  7 12  1  0     0  0
  7 14  1  0     0  0
  8 24  1  0     0  0
  8 26  1  0     0  0
  8 27  1  0     0  0
  9 25  1  0     0  0
  9 28  1  0     0  0
  9 29  1  0     0  0
 10 11  2  0     0  0
 10 17  1  0     0  0
 11 18  1  0     0  0
 13 16  2  0     0  0
 14 19  2  0     0  0
 15 20  1  0     0  0
 15 25  1  0     0  0
 17 21  2  0     0  0
 17 24  1  0     0  0
 18 22  2  0     0  0
 19 23  1  0     0  0
 20 23  2  0     0  0
 21 22  1  0     0  0
 26 28  1  0     0  0
 27 29  1  0     0  0
M  END
> <standard_type>
pIC50

> <# Confs.>
25

> <canonical_smiles>
O=C(C1=CC=CC(Cl)=C1Cl)N(CC2)CCN2CC3=NC(NC4=NC=CS4)=CC=C3

> <standard_relation>
=

> <Publication_ID>
nan

> <predicted_activity_value>
6.275724130399211

> <actual_activity_value>
6.698970004336019

> <Compound>
38

> <standard_units>
nM

> hash
457231127230834412

$$$$
38_
XXILIB    08252103423D 0   0.00000     0.00000

 29 32  0     1  0            999 V2000
   -2.2392   -4.5635    1.2196 Cl  0  0  0  0  0  1           0  0  0
   -3.3688   -6.7493   -0.8282 Cl  0  0  0  0  0  1           0  0  0
    3.7427    7.1076   -0.9360 S   0  0  0  0  0  2           0  0  0
   -4.2226   -1.6979    2.1081 O   0  0  0  0  0  2           0  0  0
    3.1978    6.1396    1.3822 N   0  0  0  0  0  3           0  0  0
    2.4107    2.2534   -0.0974 N   0  0  0  0  0  3           0  0  0
    3.3105    4.4869   -0.2925 N   0  0  0  0  0  3           0  0  0
   -2.6075   -1.0680    0.5484 N   0  0  2  0  0  3           0  0  0
    0.0000    0.0000    0.0000 N   0  0  2  0  0  3           0  0  0
   -3.5275   -4.1725    0.1246 C   0  0  0  0  0  4           0  0  0
   -4.0005   -5.1379   -0.7792 C   0  0  0  0  0  4           0  0  0
    3.3874    5.7758    0.1263 C   0  0  0  0  0  4           0  0  0
    3.6188    8.1990    0.3729 C   0  0  0  0  0  4           0  0  0
    3.0319    3.3256    0.4644 C   0  0  0  0  0  4           0  0  0
    2.1380    1.1720    0.6767 C   0  0  0  0  0  4           0  0  0
    3.3270    7.5057    1.5231 C   0  0  0  0  0  4           0  0  0
   -4.0836   -2.8808    0.0998 C   0  0  0  0  0  4           0  0  0
   -5.0140   -4.8188   -1.6883 C   0  0  0  0  0  4           0  0  0
    3.3723    3.3315    1.8186 C   0  0  0  0  0  4           0  0  0
    2.4703    1.1121    2.0243 C   0  0  0  0  0  4           0  0  0
   -5.0993   -2.5701   -0.8162 C   0  0  0  0  0  4           0  0  0
   -5.5600   -3.5379   -1.7059 C   0  0  0  0  0  4           0  0  0
    3.0924    2.2126    2.5967 C   0  0  0  0  0  4           0  0  0
   -3.6569   -1.8309    1.0294 C   0  0  0  0  0  4           0  0  0
    1.4663    0.0000    0.0000 C   0  0  0  0  0  4           0  0  0
   -2.0707    0.0224    1.3564 C   0  0  0  0  0  4           0  0  0
   -2.0334   -1.1745   -0.7953 C   0  0  0  0  0  4           0  0  0
   -0.5423    0.0000    1.3718 C   0  0  0  0  0  4           0  0  0
   -0.5050   -1.1697   -0.7404 C   0  0  0  0  0  4           0  0  0
  1 10  1  0     0  0
  2 11  1  0     0  0
  3 12  1  0     0  0
  3 13  1  0     0  0
  4 24  2  0     0  0
  5 12  2  0     0  0
  5 16  1  0     0  0
  6 14  1  0     0  0
  6 15  2  0     0  0
  7 12  1  0     0  0
  7 14  1  0     0  0
  8 24  1  0     0  0
  8 26  1  0     0  0
  8 27  1  0     0  0
  9 25  1  0     0  0
  9 28  1  0     0  0
  9 29  1  0     0  0
 10 11  2  0     0  0
 10 17  1  0     0  0
 11 18  1  0     0  0
 13 16  2  0     0  0
 14 19  2  0     0  0
 15 20  1  0     0  0
 15 25  1  0     0  0
 17 21  2  0     0  0
 17 24  1  0     0  0
 18 22  2  0     0  0
 19 23  1  0     0  0
 20 23  2  0     0  0
 21 22  1  0     0  0
 26 28  1  0     0  0
 27 29  1  0     0  0
M  END
> <standard_type>
pIC50

> <# Confs.>
25

> <canonical_smiles>
O=C(C1=CC=CC(Cl)=C1Cl)N(CC2)CCN2CC3=NC(NC4=NC=CS4)=CC=C3

> <standard_relation>
=

> <Publication_ID>
nan

> <predicted_activity_value>
6.275724130399211

> <actual_activity_value>
6.698970004336019

> <Compound>
38

> <standard_units>
nM

> hash
457231127230834412

$$$$
38_
XXILIB    08252103423D 0   0.00000     0.00000

 29 32  0     1  0            999 V2000
   -3.8771   -4.8954    0.7589 Cl  0  0  0  0  0  1           0  0  0
   -5.8831   -5.8471   -1.5471 Cl  0  0  0  0  0  1           0  0  0
    6.6355   -3.4322   -4.2516 S   0  0  0  0  0  2           0  0  0
   -3.9006   -2.0804    2.2039 O   0  0  0  0  0  2           0  0  0
    4.6779   -2.1164   -5.2736 N   0  0  0  0  0  3           0  0  0
    3.1778   -0.8563   -1.5221 N   0  0  0  0  0  3           0  0  0
    4.8947   -1.7730   -2.9532 N   0  0  0  0  0  3           0  0  0
   -2.6075   -1.0680    0.5484 N   0  0  2  0  0  3           0  0  0
    0.0000    0.0000    0.0000 N   0  0  2  0  0  3           0  0  0
   -4.7225   -3.7360   -0.2171 C   0  0  0  0  0  4           0  0  0
   -5.5864   -4.1699   -1.2359 C   0  0  0  0  0  4           0  0  0
    5.2866   -2.3403   -4.1225 C   0  0  0  0  0  4           0  0  0
    6.3549   -3.5979   -5.9289 C   0  0  0  0  0  4           0  0  0
    3.8255   -0.8782   -2.7183 C   0  0  0  0  0  4           0  0  0
    2.1380    0.0000   -1.3533 C   0  0  0  0  0  4           0  0  0
    5.2783   -2.8253   -6.2932 C   0  0  0  0  0  4           0  0  0
   -4.5241   -2.3562   -0.0292 C   0  0  0  0  0  4           0  0  0
   -6.2433   -3.2410   -2.0491 C   0  0  0  0  0  4           0  0  0
    3.4245   -0.0499   -3.7686 C   0  0  0  0  0  4           0  0  0
    1.7065    0.8614   -2.3543 C   0  0  0  0  0  4           0  0  0
   -5.1869   -1.4323   -0.8503 C   0  0  0  0  0  4           0  0  0
   -6.0422   -1.8767   -1.8561 C   0  0  0  0  0  4           0  0  0
    2.3616    0.8272   -3.5773 C   0  0  0  0  0  4           0  0  0
   -3.6569   -1.8309    1.0294 C   0  0  0  0  0  4           0  0  0
    1.4663    0.0000    0.0000 C   0  0  0  0  0  4           0  0  0
   -2.0707    0.0224    1.3564 C   0  0  0  0  0  4           0  0  0
   -2.0334   -1.1745   -0.7953 C   0  0  0  0  0  4           0  0  0
   -0.5423    0.0000    1.3718 C   0  0  0  0  0  4           0  0  0
   -0.5050   -1.1697   -0.7404 C   0  0  0  0  0  4           0  0  0
  1 10  1  0     0  0
  2 11  1  0     0  0
  3 12  1  0     0  0
  3 13  1  0     0  0
  4 24  2  0     0  0
  5 12  2  0     0  0
  5 16  1  0     0  0
  6 14  1  0     0  0
  6 15  2  0     0  0
  7 12  1  0     0  0
  7 14  1  0     0  0
  8 24  1  0     0  0
  8 26  1  0     0  0
  8 27  1  0     0  0
  9 25  1  0     0  0
  9 28  1  0     0  0
  9 29  1  0     0  0
 10 11  2  0     0  0
 10 17  1  0     0  0
 11 18  1  0     0  0
 13 16  2  0     0  0
 14 19  2  0     0  0
 15 20  1  0     0  0
 15 25  1  0     0  0
 17 21  2  0     0  0
 17 24  1  0     0  0
 18 22  2  0     0  0
 19 23  1  0     0  0
 20 23  2  0     0  0
 21 22  1  0     0  0
 26 28  1  0     0  0
 27 29  1  0     0  0
M  END
> <standard_type>
pIC50

> <# Confs.>
25

> <canonical_smiles>
O=C(C1=CC=CC(Cl)=C1Cl)N(CC2)CCN2CC3=NC(NC4=NC=CS4)=CC=C3

> <standard_relation>
=

> <Publication_ID>
nan

> <predicted_activity_value>
6.275724130399211

> <actual_activity_value>
6.698970004336019

> <Compound>
38

> <standard_units>
nM

> hash
457231127230834412

$$$$
38_
XXILIB    08252103423D 0   0.00000     0.00000

 29 32  0     1  0            999 V2000
   -2.2392   -4.5635    1.2196 Cl  0  0  0  0  0  1           0  0  0
   -3.3688   -6.7493   -0.8282 Cl  0  0  0  0  0  1           0  0  0
    1.7268    3.4322   -6.6880 S   0  0  0  0  0  2           0  0  0
   -4.2226   -1.6979    2.1081 O   0  0  0  0  0  2           0  0  0
    3.7245    2.1164   -5.7468 N   0  0  0  0  0  3           0  0  0
    1.6437    0.8563   -2.2836 N   0  0  0  0  0  3           0  0  0
    1.7453    1.7730   -4.5163 N   0  0  0  0  0  3           0  0  0
   -2.6075   -1.0680    0.5484 N   0  0  2  0  0  3           0  0  0
    0.0000    0.0000    0.0000 N   0  0  2  0  0  3           0  0  0
   -3.5275   -4.1725    0.1246 C   0  0  0  0  0  4           0  0  0
   -4.0005   -5.1379   -0.7792 C   0  0  0  0  0  4           0  0  0
    2.4397    2.3403   -5.5356 C   0  0  0  0  0  4           0  0  0
    3.2324    3.5979   -7.4787 C   0  0  0  0  0  4           0  0  0
    2.2048    0.8782   -3.5227 C   0  0  0  0  0  4           0  0  0
    2.1380    0.0000   -1.3533 C   0  0  0  0  0  4           0  0  0
    4.1736    2.8253   -6.8415 C   0  0  0  0  0  4           0  0  0
   -4.0836   -2.8808    0.0998 C   0  0  0  0  0  4           0  0  0
   -5.0140   -4.8188   -1.6883 C   0  0  0  0  0  4           0  0  0
    3.2837    0.0499   -3.8384 C   0  0  0  0  0  4           0  0  0
    3.1961   -0.8614   -1.6149 C   0  0  0  0  0  4           0  0  0
   -5.0993   -2.5701   -0.8162 C   0  0  0  0  0  4           0  0  0
   -5.5600   -3.5379   -1.7059 C   0  0  0  0  0  4           0  0  0
    3.7741   -0.8272   -2.8762 C   0  0  0  0  0  4           0  0  0
   -3.6569   -1.8309    1.0294 C   0  0  0  0  0  4           0  0  0
    1.4663   -0.0000   -0.0000 C   0  0  0  0  0  4           0  0  0
   -2.0707    0.0224    1.3564 C   0  0  0  0  0  4           0  0  0
   -2.0334   -1.1745   -0.7953 C   0  0  0  0  0  4           0  0  0
   -0.5423    0.0000    1.3718 C   0  0  0  0  0  4           0  0  0
   -0.5050   -1.1697   -0.7404 C   0  0  0  0  0  4           0  0  0
  1 10  1  0     0  0
  2 11  1  0     0  0
  3 12  1  0     0  0
  3 13  1  0     0  0
  4 24  2  0     0  0
  5 12  2  0     0  0
  5 16  1  0     0  0
  6 14  1  0     0  0
  6 15  2  0     0  0
  7 12  1  0     0  0
  7 14  1  0     0  0
  8 24  1  0     0  0
  8 26  1  0     0  0
  8 27  1  0     0  0
  9 25  1  0     0  0
  9 28  1  0     0  0
  9 29  1  0     0  0
 10 11  2  0     0  0
 10 17  1  0     0  0
 11 18  1  0     0  0
 13 16  2  0     0  0
 14 19  2  0     0  0
 15 20  1  0     0  0
 15 25  1  0     0  0
 17 21  2  0     0  0
 17 24  1  0     0  0
 18 22  2  0     0  0
 19 23  1  0     0  0
 20 23  2  0     0  0
 21 22  1  0     0  0
 26 28  1  0     0  0
 27 29  1  0     0  0
M  END
> <standard_type>
pIC50

> <# Confs.>
25

> <canonical_smiles>
O=C(C1=CC=CC(Cl)=C1Cl)N(CC2)CCN2CC3=NC(NC4=NC=CS4)=CC=C3

> <standard_relation>
=

> <Publication_ID>
nan

> <predicted_activity_value>
6.275724130399211

> <actual_activity_value>
6.698970004336019

> <Compound>
38

> <standard_units>
nM

> hash
457231127230834412

$$$$
23_
XXILIB    08252103423D 0   0.00000     0.00000

 41 45  0     1  0            999 V2000
   -8.6270    7.1905    6.2786 Cl  0  0  0  0  0  1           0  0  0
    1.3659    0.0000   -0.0000 O   0  0  0  0  0  2           0  0  0
   -0.1962   -0.0175    2.4379 O   0  0  0  0  0  2           0  0  0
   -9.5892    3.4941    3.2402 O   0  0  0  0  0  2           0  0  0
    2.6996   -8.9522    0.3575 O   0  0  0  0  0  2           0  0  0
   -8.1434    1.3908    0.7353 N   0  0  0  0  0  3           0  0  0
   -7.0026    1.0931    0.0955 N   0  0  0  0  0  3           0  0  0
   -4.7869   -0.0279   -1.5260 N   0  0  0  0  0  3           0  0  0
   -2.6131    0.0479   -2.5368 N   0  0  0  0  0  3           0  0  0
   -5.0558   -0.1440    0.8413 N   0  0  0  0  0  3           0  0  0
   -8.5554    2.2194    4.8872 N   0  0  0  0  0  3           0  0  0
    3.3218   -3.8291    0.4825 N   0  0  1  0  0  3           0  0  0
   -8.2356    5.5350    6.5531 C   0  0  0  0  0  4           0  0  0
    0.0000    0.0000    0.0000 C   0  0  0  0  0  4           0  0  0
   -0.7341    0.0000    1.1817 C   0  0  0  0  0  4           0  0  0
   -3.9535    0.0332   -2.5741 C   0  0  0  0  0  4           0  0  0
   -6.2951    0.3922    0.9947 C   0  0  0  0  0  4           0  0  0
   -4.2166   -0.0931   -0.2975 C   0  0  0  0  0  4           0  0  0
   -2.0464    0.0105   -1.3239 C   0  0  0  0  0  4           0  0  0
   -8.2077    0.9153    2.0139 C   0  0  0  0  0  4           0  0  0
   -8.2485    3.2312    5.8164 C   0  0  0  0  0  4           0  0  0
   -2.8079   -0.0499   -0.1383 C   0  0  0  0  0  4           0  0  0
   -8.5689    4.5762    5.5929 C   0  0  0  0  0  4           0  0  0
   -7.5877    5.1674    7.7320 C   0  0  0  0  0  4           0  0  0
   -0.6578    0.0295   -1.2337 C   0  0  0  0  0  4           0  0  0
   -2.1277   -0.0537    1.1074 C   0  0  0  0  0  4           0  0  0
   -7.0169    0.2531    2.2095 C   0  0  0  0  0  4           0  0  0
   -7.5982    2.8626    7.0004 C   0  0  0  0  0  4           0  0  0
   -7.2692    3.8287    7.9527 C   0  0  0  0  0  4           0  0  0
   -9.1915    2.4132    3.6734 C   0  0  0  0  0  4           0  0  0
    1.9792   -1.1167    0.6447 C   0  0  0  0  0  4           0  0  0
    2.0262   -7.8862   -0.2999 C   0  0  0  0  0  4           0  0  0
    0.0602    1.2637    3.0074 C   0  0  0  0  0  4           0  0  0
    4.0820   -2.5797    0.5764 C   0  0  0  0  0  4           0  0  0
    3.0207   -4.1765   -0.9158 C   0  0  0  0  0  4           0  0  0
    4.0596   -4.9181    1.1416 C   0  0  0  0  0  4           0  0  0
   -9.3801    1.1303    2.8968 C   0  0  0  0  0  4           0  0  0
    2.8907   -6.6319   -0.3039 C   0  0  1  0  0  4           0  0  0
    3.3182   -1.3979   -0.0252 C   0  0  0  0  0  4           0  0  0
    2.1914   -5.4608   -1.0074 C   0  0  0  0  0  4           0  0  0
    3.2620   -6.2230    1.1239 C   0  0  0  0  0  4           0  0  0
  1 13  1  0     0  0
  2 14  1  0     0  0
  2 31  1  0     0  0
  3 15  1  0     0  0
  3 33  1  0     0  0
  4 30  2  0     0  0
  5 32  1  0     0  0
  6  7  1  0     0  0
  6 20  1  0     0  0
  7 17  2  0     0  0
  8 16  1  0     0  0
  8 18  2  0     0  0
  9 16  2  0     0  0
  9 19  1  0     0  0
 10 17  1  0     0  0
 10 18  1  0     0  0
 11 21  1  0     0  0
 11 30  1  0     0  0
 12 34  1  0     0  0
 12 35  1  0     0  0
 12 36  1  0     0  0
 13 23  1  0     0  0
 13 24  2  0     0  0
 14 15  1  0     0  0
 14 25  2  0     0  0
 15 26  2  0     0  0
 17 27  1  0     0  0
 18 22  1  0     0  0
 19 22  2  0     0  0
 19 25  1  0     0  0
 20 27  2  0     0  0
 20 37  1  0     0  0
 21 23  2  0     0  0
 21 28  1  0     0  0
 22 26  1  0     0  0
 24 29  1  0     0  0
 28 29  2  0     0  0
 30 37  1  0     0  0
 31 39  1  0     0  0
 32 38  1  0     0  0
 34 39  1  0     0  0
 35 40  1  0     0  0
 36 41  1  0     0  0
 38 40  1  0     0  0
 38 41  1  0     0  0
M  END
> <standard_type>
pIC50

> <# Confs.>
25

> <canonical_smiles>
ClC1=CC=CC(NC(CC2=CC(NC3=NC=NC4=C3C=C(OC)C(OCCCN5CCC(CO)CC5)=C4)=NN2)=O)=C1

> <standard_relation>
=

> <Publication_ID>
nan

> <predicted_activity_value>
8.443697499232712

> <actual_activity_value>
8.096910013008056

> <Compound>
23

> <standard_units>
nM

> hash
8647914449690908827

$$$$
23_
XXILIB    08252103423D 0   0.00000     0.00000

 41 45  0     1  0            999 V2000
  -14.0209   -3.9805    1.8614 Cl  0  0  0  0  0  1           0  0  0
    1.3659    0.0000   -0.0000 O   0  0  0  0  0  2           0  0  0
   -0.1962   -0.0175    2.4379 O   0  0  0  0  0  2           0  0  0
  -11.2533    0.0396    1.8717 O   0  0  0  0  0  2           0  0  0
    2.6996   -8.9522    0.3575 O   0  0  0  0  0  2           0  0  0
   -8.1434    1.3908    0.7353 N   0  0  0  0  0  3           0  0  0
   -7.0026    1.0931    0.0955 N   0  0  0  0  0  3           0  0  0
   -4.7869   -0.0279   -1.5260 N   0  0  0  0  0  3           0  0  0
   -2.6131    0.0479   -2.5368 N   0  0  0  0  0  3           0  0  0
   -5.0558   -0.1440    0.8413 N   0  0  0  0  0  3           0  0  0
  -10.1155   -1.0684    3.5700 N   0  0  0  0  0  3           0  0  0
    3.3218   -3.8291    0.4825 N   0  0  1  0  0  3           0  0  0
  -12.6675   -3.6939    2.8886 C   0  0  0  0  0  4           0  0  0
    0.0000    0.0000    0.0000 C   0  0  0  0  0  4           0  0  0
   -0.7341    0.0000    1.1817 C   0  0  0  0  0  4           0  0  0
   -3.9535    0.0332   -2.5741 C   0  0  0  0  0  4           0  0  0
   -6.2951    0.3922    0.9947 C   0  0  0  0  0  4           0  0  0
   -4.2166   -0.0931   -0.2975 C   0  0  0  0  0  4           0  0  0
   -2.0464    0.0105   -1.3239 C   0  0  0  0  0  4           0  0  0
   -8.2077    0.9153    2.0139 C   0  0  0  0  0  4           0  0  0
  -10.8640   -2.2592    3.6231 C   0  0  0  0  0  4           0  0  0
   -2.8079   -0.0499   -0.1383 C   0  0  0  0  0  4           0  0  0
  -11.9628   -2.4918    2.7863 C   0  0  0  0  0  4           0  0  0
  -12.2886   -4.6652    3.8147 C   0  0  0  0  0  4           0  0  0
   -0.6578    0.0295   -1.2337 C   0  0  0  0  0  4           0  0  0
   -2.1277   -0.0537    1.1074 C   0  0  0  0  0  4           0  0  0
   -7.0169    0.2531    2.2095 C   0  0  0  0  0  4           0  0  0
  -10.4838   -3.2350    4.5527 C   0  0  0  0  0  4           0  0  0
  -11.1953   -4.4322    4.6470 C   0  0  0  0  0  4           0  0  0
  -10.3578   -0.0079    2.7144 C   0  0  0  0  0  4           0  0  0
    1.9792   -1.1167    0.6447 C   0  0  0  0  0  4           0  0  0
    2.0262   -7.8862   -0.2999 C   0  0  0  0  0  4           0  0  0
    0.0602    1.2637    3.0074 C   0  0  0  0  0  4           0  0  0
    4.0820   -2.5797    0.5764 C   0  0  0  0  0  4           0  0  0
    3.0207   -4.1765   -0.9158 C   0  0  0  0  0  4           0  0  0
    4.0596   -4.9181    1.1416 C   0  0  0  0  0  4           0  0  0
   -9.3801    1.1303    2.8968 C   0  0  0  0  0  4           0  0  0
    2.8907   -6.6319   -0.3039 C   0  0  1  0  0  4           0  0  0
    3.3182   -1.3979   -0.0252 C   0  0  0  0  0  4           0  0  0
    2.1914   -5.4608   -1.0074 C   0  0  0  0  0  4           0  0  0
    3.2620   -6.2230    1.1239 C   0  0  0  0  0  4           0  0  0
  1 13  1  0     0  0
  2 14  1  0     0  0
  2 31  1  0     0  0
  3 15  1  0     0  0
  3 33  1  0     0  0
  4 30  2  0     0  0
  5 32  1  0     0  0
  6  7  1  0     0  0
  6 20  1  0     0  0
  7 17  2  0     0  0
  8 16  1  0     0  0
  8 18  2  0     0  0
  9 16  2  0     0  0
  9 19  1  0     0  0
 10 17  1  0     0  0
 10 18  1  0     0  0
 11 21  1  0     0  0
 11 30  1  0     0  0
 12 34  1  0     0  0
 12 35  1  0     0  0
 12 36  1  0     0  0
 13 23  1  0     0  0
 13 24  2  0     0  0
 14 15  1  0     0  0
 14 25  2  0     0  0
 15 26  2  0     0  0
 17 27  1  0     0  0
 18 22  1  0     0  0
 19 22  2  0     0  0
 19 25  1  0     0  0
 20 27  2  0     0  0
 20 37  1  0     0  0
 21 23  2  0     0  0
 21 28  1  0     0  0
 22 26  1  0     0  0
 24 29  1  0     0  0
 28 29  2  0     0  0
 30 37  1  0     0  0
 31 39  1  0     0  0
 32 38  1  0     0  0
 34 39  1  0     0  0
 35 40  1  0     0  0
 36 41  1  0     0  0
 38 40  1  0     0  0
 38 41  1  0     0  0
M  END
> <standard_type>
pIC50

> <# Confs.>
25

> <canonical_smiles>
ClC1=CC=CC(NC(CC2=CC(NC3=NC=NC4=C3C=C(OC)C(OCCCN5CCC(CO)CC5)=C4)=NN2)=O)=C1

> <standard_relation>
=

> <Publication_ID>
nan

> <predicted_activity_value>
8.443697499232712

> <actual_activity_value>
8.096910013008056

> <Compound>
23

> <standard_units>
nM

> hash
8647914449690908827

$$$$
23_
XXILIB    08252103423D 0   0.00000     0.00000

 41 45  0     1  0            999 V2000
   -8.7566   -7.8980    5.5651 Cl  0  0  0  0  0  1           0  0  0
    1.3659    0.0000   -0.0000 O   0  0  0  0  0  2           0  0  0
   -0.1962   -0.0175    2.4379 O   0  0  0  0  0  2           0  0  0
   -9.6473   -3.9223    2.8777 O   0  0  0  0  0  2           0  0  0
    2.6996   -8.9522    0.3575 O   0  0  0  0  0  2           0  0  0
   -8.1666   -1.6128    0.5838 N   0  0  0  0  0  3           0  0  0
   -7.0189   -1.2740   -0.0225 N   0  0  0  0  0  3           0  0  0
   -4.7869   -0.0279   -1.5260 N   0  0  0  0  0  3           0  0  0
   -2.6131    0.0479   -2.5368 N   0  0  0  0  0  3           0  0  0
   -5.0558   -0.1440    0.8413 N   0  0  0  0  0  3           0  0  0
   -8.5763   -2.8248    4.6256 N   0  0  0  0  0  3           0  0  0
    3.3218   -3.8291    0.4825 N   0  0  1  0  0  3           0  0  0
   -8.3157   -6.2845    5.9793 C   0  0  0  0  0  4           0  0  0
   -0.0000    0.0000    0.0000 C   0  0  0  0  0  4           0  0  0
   -0.7341    0.0000    1.1817 C   0  0  0  0  0  4           0  0  0
   -3.9535    0.0332   -2.5741 C   0  0  0  0  0  4           0  0  0
   -6.3025   -0.6758    0.9415 C   0  0  0  0  0  4           0  0  0
   -4.2166   -0.0931   -0.2975 C   0  0  0  0  0  4           0  0  0
   -2.0464    0.0105   -1.3239 C   0  0  0  0  0  4           0  0  0
   -8.2286   -1.2585    1.9012 C   0  0  0  0  0  4           0  0  0
   -8.2794   -3.9240    5.4530 C   0  0  0  0  0  4           0  0  0
   -2.8079   -0.0499   -0.1383 C   0  0  0  0  0  4           0  0  0
   -8.6366   -5.2352    5.1143 C   0  0  0  0  0  4           0  0  0
   -7.6431   -6.0408    7.1762 C   0  0  0  0  0  4           0  0  0
   -0.6578    0.0295   -1.2337 C   0  0  0  0  0  4           0  0  0
   -2.1277   -0.0537    1.1074 C   0  0  0  0  0  4           0  0  0
   -7.0223   -0.6500    2.1652 C   0  0  0  0  0  4           0  0  0
   -7.6037   -3.6798    6.6549 C   0  0  0  0  0  4           0  0  0
   -7.2886   -4.7355    7.5121 C   0  0  0  0  0  4           0  0  0
   -9.2369   -2.8922    3.4112 C   0  0  0  0  0  4           0  0  0
    1.9792   -1.1167    0.6447 C   0  0  0  0  0  4           0  0  0
    2.0262   -7.8862   -0.2999 C   0  0  0  0  0  4           0  0  0
    0.0602    1.2637    3.0074 C   0  0  0  0  0  4           0  0  0
    4.0820   -2.5797    0.5764 C   0  0  0  0  0  4           0  0  0
    3.0207   -4.1765   -0.9158 C   0  0  0  0  0  4           0  0  0
    4.0596   -4.9181    1.1416 C   0  0  0  0  0  4           0  0  0
   -9.4064   -1.5397    2.7580 C   0  0  0  0  0  4           0  0  0
    2.8907   -6.6319   -0.3039 C   0  0  1  0  0  4           0  0  0
    3.3182   -1.3979   -0.0252 C   0  0  0  0  0  4           0  0  0
    2.1914   -5.4608   -1.0074 C   0  0  0  0  0  4           0  0  0
    3.2620   -6.2230    1.1239 C   0  0  0  0  0  4           0  0  0
  1 13  1  0     0  0
  2 14  1  0     0  0
  2 31  1  0     0  0
  3 15  1  0     0  0
  3 33  1  0     0  0
  4 30  2  0     0  0
  5 32  1  0     0  0
  6  7  1  0     0  0
  6 20  1  0     0  0
  7 17  2  0     0  0
  8 16  1  0     0  0
  8 18  2  0     0  0
  9 16  2  0     0  0
  9 19  1  0     0  0
 10 17  1  0     0  0
 10 18  1  0     0  0
 11 21  1  0     0  0
 11 30  1  0     0  0
 12 34  1  0     0  0
 12 35  1  0     0  0
 12 36  1  0     0  0
 13 23  1  0     0  0
 13 24  2  0     0  0
 14 15  1  0     0  0
 14 25  2  0     0  0
 15 26  2  0     0  0
 17 27  1  0     0  0
 18 22  1  0     0  0
 19 22  2  0     0  0
 19 25  1  0     0  0
 20 27  2  0     0  0
 20 37  1  0     0  0
 21 23  2  0     0  0
 21 28  1  0     0  0
 22 26  1  0     0  0
 24 29  1  0     0  0
 28 29  2  0     0  0
 30 37  1  0     0  0
 31 39  1  0     0  0
 32 38  1  0     0  0
 34 39  1  0     0  0
 35 40  1  0     0  0
 36 41  1  0     0  0
 38 40  1  0     0  0
 38 41  1  0     0  0
M  END
> <standard_type>
pIC50

> <# Confs.>
25

> <canonical_smiles>
ClC1=CC=CC(NC(CC2=CC(NC3=NC=NC4=C3C=C(OC)C(OCCCN5CCC(CO)CC5)=C4)=NN2)=O)=C1

> <standard_relation>
=

> <Publication_ID>
nan

> <predicted_activity_value>
8.443697499232712

> <actual_activity_value>
8.096910013008056

> <Compound>
23

> <standard_units>
nM

> hash
8647914449690908827

$$$$
23_
XXILIB    08252103423D 0   0.00000     0.00000

 41 45  0     1  0            999 V2000
   -8.6270    7.1905    6.2786 Cl  0  0  0  0  0  1           0  0  0
    1.3659   -0.0000    0.0000 O   0  0  0  0  0  2           0  0  0
   -0.1962   -0.0175    2.4379 O   0  0  0  0  0  2           0  0  0
   -9.5892    3.4941    3.2402 O   0  0  0  0  0  2           0  0  0
    8.9847   -0.8326   -4.5187 O   0  0  0  0  0  2           0  0  0
   -8.1434    1.3908    0.7353 N   0  0  0  0  0  3           0  0  0
   -7.0026    1.0931    0.0955 N   0  0  0  0  0  3           0  0  0
   -4.7869   -0.0279   -1.5260 N   0  0  0  0  0  3           0  0  0
   -2.6131    0.0479   -2.5368 N   0  0  0  0  0  3           0  0  0
   -5.0558   -0.1440    0.8413 N   0  0  0  0  0  3           0  0  0
   -8.5554    2.2194    4.8872 N   0  0  0  0  0  3           0  0  0
    5.5766   -0.5514   -0.6181 N   0  0  1  0  0  3           0  0  0
   -8.2356    5.5350    6.5531 C   0  0  0  0  0  4           0  0  0
    0.0000    0.0000    0.0000 C   0  0  0  0  0  4           0  0  0
   -0.7341    0.0000    1.1817 C   0  0  0  0  0  4           0  0  0
   -3.9535    0.0332   -2.5741 C   0  0  0  0  0  4           0  0  0
   -6.2951    0.3922    0.9947 C   0  0  0  0  0  4           0  0  0
   -4.2166   -0.0931   -0.2975 C   0  0  0  0  0  4           0  0  0
   -2.0464    0.0105   -1.3239 C   0  0  0  0  0  4           0  0  0
   -8.2077    0.9153    2.0139 C   0  0  0  0  0  4           0  0  0
   -8.2485    3.2312    5.8164 C   0  0  0  0  0  4           0  0  0
   -2.8079   -0.0499   -0.1383 C   0  0  0  0  0  4           0  0  0
   -8.5689    4.5762    5.5929 C   0  0  0  0  0  4           0  0  0
   -7.5877    5.1674    7.7320 C   0  0  0  0  0  4           0  0  0
   -0.6578    0.0295   -1.2337 C   0  0  0  0  0  4           0  0  0
   -2.1277   -0.0537    1.1074 C   0  0  0  0  0  4           0  0  0
   -7.0169    0.2531    2.2095 C   0  0  0  0  0  4           0  0  0
   -7.5982    2.8626    7.0004 C   0  0  0  0  0  4           0  0  0
   -7.2692    3.8287    7.9527 C   0  0  0  0  0  4           0  0  0
   -9.1915    2.4132    3.6734 C   0  0  0  0  0  4           0  0  0
    1.9792   -1.1167    0.6447 C   0  0  0  0  0  4           0  0  0
    9.1025   -0.5414   -3.1319 C   0  0  0  0  0  4           0  0  0
    0.0602    1.2637    3.0074 C   0  0  0  0  0  4           0  0  0
    4.3065   -0.2313    0.0392 C   0  0  0  0  0  4           0  0  0
    5.3839   -0.8760   -2.0408 C   0  0  0  0  0  4           0  0  0
    6.5198    0.5671   -0.4630 C   0  0  0  0  0  4           0  0  0
   -9.3801    1.1303    2.8968 C   0  0  0  0  0  4           0  0  0
    7.7517   -0.1356   -2.5561 C   0  0  1  0  0  4           0  0  0
    3.3182   -1.3979   -0.0252 C   0  0  0  0  0  4           0  0  0
    6.7078   -1.2494   -2.7141 C   0  0  0  0  0  4           0  0  0
    7.8813    0.2382   -1.0772 C   0  0  0  0  0  4           0  0  0
  1 13  1  0     0  0
  2 14  1  0     0  0
  2 31  1  0     0  0
  3 15  1  0     0  0
  3 33  1  0     0  0
  4 30  2  0     0  0
  5 32  1  0     0  0
  6  7  1  0     0  0
  6 20  1  0     0  0
  7 17  2  0     0  0
  8 16  1  0     0  0
  8 18  2  0     0  0
  9 16  2  0     0  0
  9 19  1  0     0  0
 10 17  1  0     0  0
 10 18  1  0     0  0
 11 21  1  0     0  0
 11 30  1  0     0  0
 12 34  1  0     0  0
 12 35  1  0     0  0
 12 36  1  0     0  0
 13 23  1  0     0  0
 13 24  2  0     0  0
 14 15  1  0     0  0
 14 25  2  0     0  0
 15 26  2  0     0  0
 17 27  1  0     0  0
 18 22  1  0     0  0
 19 22  2  0     0  0
 19 25  1  0     0  0
 20 27  2  0     0  0
 20 37  1  0     0  0
 21 23  2  0     0  0
 21 28  1  0     0  0
 22 26  1  0     0  0
 24 29  1  0     0  0
 28 29  2  0     0  0
 30 37  1  0     0  0
 31 39  1  0     0  0
 32 38  1  0     0  0
 34 39  1  0     0  0
 35 40  1  0     0  0
 36 41  1  0     0  0
 38 40  1  0     0  0
 38 41  1  0     0  0
M  END
> <standard_type>
pIC50

> <# Confs.>
25

> <canonical_smiles>
ClC1=CC=CC(NC(CC2=CC(NC3=NC=NC4=C3C=C(OC)C(OCCCN5CCC(CO)CC5)=C4)=NN2)=O)=C1

> <standard_relation>
=

> <Publication_ID>
nan

> <predicted_activity_value>
8.443697499232712

> <actual_activity_value>
8.096910013008056

> <Compound>
23

> <standard_units>
nM

> hash
8647914449690908827

$$$$
23_
XXILIB    08252103423D 0   0.00000     0.00000

 41 45  0     1  0            999 V2000
  -14.0209   -3.9805    1.8614 Cl  0  0  0  0  0  1           0  0  0
    1.3659   -0.0000    0.0000 O   0  0  0  0  0  2           0  0  0
   -0.1962   -0.0175    2.4379 O   0  0  0  0  0  2           0  0  0
  -11.2533    0.0396    1.8717 O   0  0  0  0  0  2           0  0  0
    8.9847   -0.8326   -4.5187 O   0  0  0  0  0  2           0  0  0
   -8.1434    1.3908    0.7353 N   0  0  0  0  0  3           0  0  0
   -7.0026    1.0931    0.0955 N   0  0  0  0  0  3           0  0  0
   -4.7869   -0.0279   -1.5260 N   0  0  0  0  0  3           0  0  0
   -2.6131    0.0479   -2.5368 N   0  0  0  0  0  3           0  0  0
   -5.0558   -0.1440    0.8413 N   0  0  0  0  0  3           0  0  0
  -10.1155   -1.0684    3.5700 N   0  0  0  0  0  3           0  0  0
    5.5766   -0.5514   -0.6181 N   0  0  1  0  0  3           0  0  0
  -12.6675   -3.6939    2.8886 C   0  0  0  0  0  4           0  0  0
    0.0000    0.0000    0.0000 C   0  0  0  0  0  4           0  0  0
   -0.7341    0.0000    1.1817 C   0  0  0  0  0  4           0  0  0
   -3.9535    0.0332   -2.5741 C   0  0  0  0  0  4           0  0  0
   -6.2951    0.3922    0.9947 C   0  0  0  0  0  4           0  0  0
   -4.2166   -0.0931   -0.2975 C   0  0  0  0  0  4           0  0  0
   -2.0464    0.0105   -1.3239 C   0  0  0  0  0  4           0  0  0
   -8.2077    0.9153    2.0139 C   0  0  0  0  0  4           0  0  0
  -10.8640   -2.2592    3.6231 C   0  0  0  0  0  4           0  0  0
   -2.8079   -0.0499   -0.1383 C   0  0  0  0  0  4           0  0  0
  -11.9628   -2.4918    2.7863 C   0  0  0  0  0  4           0  0  0
  -12.2886   -4.6652    3.8147 C   0  0  0  0  0  4           0  0  0
   -0.6578    0.0295   -1.2337 C   0  0  0  0  0  4           0  0  0
   -2.1277   -0.0537    1.1074 C   0  0  0  0  0  4           0  0  0
   -7.0169    0.2531    2.2095 C   0  0  0  0  0  4           0  0  0
  -10.4838   -3.2350    4.5527 C   0  0  0  0  0  4           0  0  0
  -11.1953   -4.4322    4.6470 C   0  0  0  0  0  4           0  0  0
  -10.3578   -0.0079    2.7144 C   0  0  0  0  0  4           0  0  0
    1.9792   -1.1167    0.6447 C   0  0  0  0  0  4           0  0  0
    9.1025   -0.5414   -3.1319 C   0  0  0  0  0  4           0  0  0
    0.0602    1.2637    3.0074 C   0  0  0  0  0  4           0  0  0
    4.3065   -0.2313    0.0392 C   0  0  0  0  0  4           0  0  0
    5.3839   -0.8760   -2.0408 C   0  0  0  0  0  4           0  0  0
    6.5198    0.5671   -0.4630 C   0  0  0  0  0  4           0  0  0
   -9.3801    1.1303    2.8968 C   0  0  0  0  0  4           0  0  0
    7.7517   -0.1356   -2.5561 C   0  0  1  0  0  4           0  0  0
    3.3182   -1.3979   -0.0252 C   0  0  0  0  0  4           0  0  0
    6.7078   -1.2494   -2.7141 C   0  0  0  0  0  4           0  0  0
    7.8813    0.2382   -1.0772 C   0  0  0  0  0  4           0  0  0
  1 13  1  0     0  0
  2 14  1  0     0  0
  2 31  1  0     0  0
  3 15  1  0     0  0
  3 33  1  0     0  0
  4 30  2  0     0  0
  5 32  1  0     0  0
  6  7  1  0     0  0
  6 20  1  0     0  0
  7 17  2  0     0  0
  8 16  1  0     0  0
  8 18  2  0     0  0
  9 16  2  0     0  0
  9 19  1  0     0  0
 10 17  1  0     0  0
 10 18  1  0     0  0
 11 21  1  0     0  0
 11 30  1  0     0  0
 12 34  1  0     0  0
 12 35  1  0     0  0
 12 36  1  0     0  0
 13 23  1  0     0  0
 13 24  2  0     0  0
 14 15  1  0     0  0
 14 25  2  0     0  0
 15 26  2  0     0  0
 17 27  1  0     0  0
 18 22  1  0     0  0
 19 22  2  0     0  0
 19 25  1  0     0  0
 20 27  2  0     0  0
 20 37  1  0     0  0
 21 23  2  0     0  0
 21 28  1  0     0  0
 22 26  1  0     0  0
 24 29  1  0     0  0
 28 29  2  0     0  0
 30 37  1  0     0  0
 31 39  1  0     0  0
 32 38  1  0     0  0
 34 39  1  0     0  0
 35 40  1  0     0  0
 36 41  1  0     0  0
 38 40  1  0     0  0
 38 41  1  0     0  0
M  END
> <standard_type>
pIC50

> <# Confs.>
25

> <canonical_smiles>
ClC1=CC=CC(NC(CC2=CC(NC3=NC=NC4=C3C=C(OC)C(OCCCN5CCC(CO)CC5)=C4)=NN2)=O)=C1

> <standard_relation>
=

> <Publication_ID>
nan

> <predicted_activity_value>
8.443697499232712

> <actual_activity_value>
8.096910013008056

> <Compound>
23

> <standard_units>
nM

> hash
8647914449690908827

$$$$
23_
XXILIB    08252103423D 0   0.00000     0.00000

 41 45  0     1  0            999 V2000
   -8.7566   -7.8980    5.5651 Cl  0  0  0  0  0  1           0  0  0
    1.3659    0.0000    0.0000 O   0  0  0  0  0  2           0  0  0
   -0.1962   -0.0175    2.4379 O   0  0  0  0  0  2           0  0  0
   -9.6473   -3.9223    2.8777 O   0  0  0  0  0  2           0  0  0
    7.1646    0.8455    6.1001 O   0  0  0  0  0  2           0  0  0
   -8.1666   -1.6128    0.5838 N   0  0  0  0  0  3           0  0  0
   -7.0189   -1.2740   -0.0225 N   0  0  0  0  0  3           0  0  0
   -4.7869   -0.0279   -1.5260 N   0  0  0  0  0  3           0  0  0
   -2.6131    0.0479   -2.5368 N   0  0  0  0  0  3           0  0  0
   -5.0558   -0.1440    0.8413 N   0  0  0  0  0  3           0  0  0
   -8.5763   -2.8248    4.6256 N   0  0  0  0  0  3           0  0  0
    4.3846    2.3721    1.9952 N   0  0  1  0  0  3           0  0  0
   -8.3157   -6.2845    5.9793 C   0  0  0  0  0  4           0  0  0
   -0.0000    0.0000    0.0000 C   0  0  0  0  0  4           0  0  0
   -0.7341    0.0000    1.1817 C   0  0  0  0  0  4           0  0  0
   -3.9535    0.0332   -2.5741 C   0  0  0  0  0  4           0  0  0
   -6.3025   -0.6758    0.9415 C   0  0  0  0  0  4           0  0  0
   -4.2166   -0.0931   -0.2975 C   0  0  0  0  0  4           0  0  0
   -2.0464    0.0105   -1.3239 C   0  0  0  0  0  4           0  0  0
   -8.2286   -1.2585    1.9012 C   0  0  0  0  0  4           0  0  0
   -8.2794   -3.9240    5.4530 C   0  0  0  0  0  4           0  0  0
   -2.8079   -0.0499   -0.1383 C   0  0  0  0  0  4           0  0  0
   -8.6366   -5.2352    5.1143 C   0  0  0  0  0  4           0  0  0
   -7.6431   -6.0408    7.1762 C   0  0  0  0  0  4           0  0  0
   -0.6578    0.0295   -1.2337 C   0  0  0  0  0  4           0  0  0
   -2.1277   -0.0537    1.1074 C   0  0  0  0  0  4           0  0  0
   -7.0223   -0.6500    2.1652 C   0  0  0  0  0  4           0  0  0
   -7.6037   -3.6798    6.6549 C   0  0  0  0  0  4           0  0  0
   -7.2886   -4.7355    7.5121 C   0  0  0  0  0  4           0  0  0
   -9.2369   -2.8922    3.4112 C   0  0  0  0  0  4           0  0  0
    1.9792    1.1167    0.6447 C   0  0  0  0  0  4           0  0  0
    6.3393    1.9736    5.8385 C   0  0  0  0  0  4           0  0  0
    0.0261   -1.3142    2.9862 C   0  0  0  0  0  4           0  0  0
    4.0820    2.5797    0.5764 C   0  0  0  0  0  4           0  0  0
    5.2120    1.1725    2.2029 C   0  0  0  0  0  4           0  0  0
    5.0479    3.5634    2.5481 C   0  0  0  0  0  4           0  0  0
   -9.4064   -1.5397    2.7580 C   0  0  0  0  0  4           0  0  0
    6.1525    2.1605    4.3383 C   0  0  1  0  0  4           0  0  0
    3.3182    1.3979   -0.0252 C   0  0  0  0  0  4           0  0  0
    5.4920    0.9363    3.6900 C   0  0  0  0  0  4           0  0  0
    5.3152    3.4084    4.0460 C   0  0  0  0  0  4           0  0  0
  1 13  1  0     0  0
  2 14  1  0     0  0
  2 31  1  0     0  0
  3 15  1  0     0  0
  3 33  1  0     0  0
  4 30  2  0     0  0
  5 32  1  0     0  0
  6  7  1  0     0  0
  6 20  1  0     0  0
  7 17  2  0     0  0
  8 16  1  0     0  0
  8 18  2  0     0  0
  9 16  2  0     0  0
  9 19  1  0     0  0
 10 17  1  0     0  0
 10 18  1  0     0  0
 11 21  1  0     0  0
 11 30  1  0     0  0
 12 34  1  0     0  0
 12 35  1  0     0  0
 12 36  1  0     0  0
 13 23  1  0     0  0
 13 24  2  0     0  0
 14 15  1  0     0  0
 14 25  2  0     0  0
 15 26  2  0     0  0
 17 27  1  0     0  0
 18 22  1  0     0  0
 19 22  2  0     0  0
 19 25  1  0     0  0
 20 27  2  0     0  0
 20 37  1  0     0  0
 21 23  2  0     0  0
 21 28  1  0     0  0
 22 26  1  0     0  0
 24 29  1  0     0  0
 28 29  2  0     0  0
 30 37  1  0     0  0
 31 39  1  0     0  0
 32 38  1  0     0  0
 34 39  1  0     0  0
 35 40  1  0     0  0
 36 41  1  0     0  0
 38 40  1  0     0  0
 38 41  1  0     0  0
M  END
> <standard_type>
pIC50

> <# Confs.>
25

> <canonical_smiles>
ClC1=CC=CC(NC(CC2=CC(NC3=NC=NC4=C3C=C(OC)C(OCCCN5CCC(CO)CC5)=C4)=NN2)=O)=C1

> <standard_relation>
=

> <Publication_ID>
nan

> <predicted_activity_value>
8.443697499232712

> <actual_activity_value>
8.096910013008056

> <Compound>
23

> <standard_units>
nM

> hash
8647914449690908827

$$$$
23_
XXILIB    08252103423D 0   0.00000     0.00000

 41 45  0     1  0            999 V2000
  -13.9671    3.7143    2.1883 Cl  0  0  0  0  0  1           0  0  0
    1.3659    0.0000   -0.0000 O   0  0  0  0  0  2           0  0  0
   -0.1962   -0.0175    2.4379 O   0  0  0  0  0  2           0  0  0
  -11.2620   -0.3328    1.8363 O   0  0  0  0  0  2           0  0  0
    2.6996   -8.9522    0.3575 O   0  0  0  0  0  2           0  0  0
   -8.1666   -1.6128    0.5838 N   0  0  0  0  0  3           0  0  0
   -7.0189   -1.2740   -0.0225 N   0  0  0  0  0  3           0  0  0
   -4.7869   -0.0279   -1.5260 N   0  0  0  0  0  3           0  0  0
   -2.6131    0.0479   -2.5368 N   0  0  0  0  0  3           0  0  0
   -5.0558   -0.1440    0.8413 N   0  0  0  0  0  3           0  0  0
  -10.1330    0.5821    3.6515 N   0  0  0  0  0  3           0  0  0
    3.3218   -3.8291    0.4825 N   0  0  1  0  0  3           0  0  0
  -12.6408    3.2993    3.2071 C   0  0  0  0  0  4           0  0  0
   -0.0000    0.0000    0.0000 C   0  0  0  0  0  4           0  0  0
   -0.7341    0.0000    1.1817 C   0  0  0  0  0  4           0  0  0
   -3.9535    0.0332   -2.5741 C   0  0  0  0  0  4           0  0  0
   -6.3025   -0.6758    0.9415 C   0  0  0  0  0  4           0  0  0
   -4.2166   -0.0931   -0.2975 C   0  0  0  0  0  4           0  0  0
   -2.0464    0.0105   -1.3239 C   0  0  0  0  0  4           0  0  0
   -8.2286   -1.2585    1.9012 C   0  0  0  0  0  4           0  0  0
  -10.8703    1.7692    3.8191 C   0  0  0  0  0  4           0  0  0
   -2.8079   -0.0499   -0.1383 C   0  0  0  0  0  4           0  0  0
  -11.9494    2.1045    2.9914 C   0  0  0  0  0  4           0  0  0
  -12.2687    4.1618    4.2378 C   0  0  0  0  0  4           0  0  0
   -0.6578    0.0295   -1.2337 C   0  0  0  0  0  4           0  0  0
   -2.1277   -0.0537    1.1074 C   0  0  0  0  0  4           0  0  0
   -7.0223   -0.6500    2.1652 C   0  0  0  0  0  4           0  0  0
  -10.4973    2.6355    4.8541 C   0  0  0  0  0  4           0  0  0
  -11.1946    3.8270    5.0602 C   0  0  0  0  0  4           0  0  0
  -10.3685   -0.3765    2.6814 C   0  0  0  0  0  4           0  0  0
    1.9792   -1.1167    0.6447 C   0  0  0  0  0  4           0  0  0
    2.0262   -7.8862   -0.2999 C   0  0  0  0  0  4           0  0  0
    0.0602    1.2637    3.0074 C   0  0  0  0  0  4           0  0  0
    4.0820   -2.5797    0.5764 C   0  0  0  0  0  4           0  0  0
    3.0207   -4.1765   -0.9158 C   0  0  0  0  0  4           0  0  0
    4.0596   -4.9181    1.1416 C   0  0  0  0  0  4           0  0  0
   -9.4064   -1.5397    2.7580 C   0  0  0  0  0  4           0  0  0
    2.8907   -6.6319   -0.3039 C   0  0  1  0  0  4           0  0  0
    3.3182   -1.3979   -0.0252 C   0  0  0  0  0  4           0  0  0
    2.1914   -5.4608   -1.0074 C   0  0  0  0  0  4           0  0  0
    3.2620   -6.2230    1.1239 C   0  0  0  0  0  4           0  0  0
  1 13  1  0     0  0
  2 14  1  0     0  0
  2 31  1  0     0  0
  3 15  1  0     0  0
  3 33  1  0     0  0
  4 30  2  0     0  0
  5 32  1  0     0  0
  6  7  1  0     0  0
  6 20  1  0     0  0
  7 17  2  0     0  0
  8 16  1  0     0  0
  8 18  2  0     0  0
  9 16  2  0     0  0
  9 19  1  0     0  0
 10 17  1  0     0  0
 10 18  1  0     0  0
 11 21  1  0     0  0
 11 30  1  0     0  0
 12 34  1  0     0  0
 12 35  1  0     0  0
 12 36  1  0     0  0
 13 23  1  0     0  0
 13 24  2  0     0  0
 14 15  1  0     0  0
 14 25  2  0     0  0
 15 26  2  0     0  0
 17 27  1  0     0  0
 18 22  1  0     0  0
 19 22  2  0     0  0
 19 25  1  0     0  0
 20 27  2  0     0  0
 20 37  1  0     0  0
 21 23  2  0     0  0
 21 28  1  0     0  0
 22 26  1  0     0  0
 24 29  1  0     0  0
 28 29  2  0     0  0
 30 37  1  0     0  0
 31 39  1  0     0  0
 32 38  1  0     0  0
 34 39  1  0     0  0
 35 40  1  0     0  0
 36 41  1  0     0  0
 38 40  1  0     0  0
 38 41  1  0     0  0
M  END
> <standard_type>
pIC50

> <# Confs.>
25

> <canonical_smiles>
ClC1=CC=CC(NC(CC2=CC(NC3=NC=NC4=C3C=C(OC)C(OCCCN5CCC(CO)CC5)=C4)=NN2)=O)=C1

> <standard_relation>
=

> <Publication_ID>
nan

> <predicted_activity_value>
8.443697499232712

> <actual_activity_value>
8.096910013008056

> <Compound>
23

> <standard_units>
nM

> hash
8647914449690908827

$$$$
23_
XXILIB    08252103423D 0   0.00000     0.00000

 41 45  0     1  0            999 V2000
   -8.7566   -7.8980    5.5651 Cl  0  0  0  0  0  1           0  0  0
    1.3659    0.0000   -0.0000 O   0  0  0  0  0  2           0  0  0
   -0.1962   -0.0175    2.4379 O   0  0  0  0  0  2           0  0  0
   -9.6473   -3.9223    2.8777 O   0  0  0  0  0  2           0  0  0
    8.9657    0.8585   -4.5456 O   0  0  0  0  0  2           0  0  0
   -8.1666   -1.6128    0.5838 N   0  0  0  0  0  3           0  0  0
   -7.0189   -1.2740   -0.0225 N   0  0  0  0  0  3           0  0  0
   -4.7869   -0.0279   -1.5260 N   0  0  0  0  0  3           0  0  0
   -2.6131    0.0479   -2.5368 N   0  0  0  0  0  3           0  0  0
   -5.0558   -0.1440    0.8413 N   0  0  0  0  0  3           0  0  0
   -8.5763   -2.8248    4.6256 N   0  0  0  0  0  3           0  0  0
    4.5265    1.9909   -2.1125 N   0  0  1  0  0  3           0  0  0
   -8.3157   -6.2845    5.9793 C   0  0  0  0  0  4           0  0  0
   -0.0000    0.0000    0.0000 C   0  0  0  0  0  4           0  0  0
   -0.7341    0.0000    1.1817 C   0  0  0  0  0  4           0  0  0
   -3.9535    0.0332   -2.5741 C   0  0  0  0  0  4           0  0  0
   -6.3025   -0.6758    0.9415 C   0  0  0  0  0  4           0  0  0
   -4.2166   -0.0931   -0.2975 C   0  0  0  0  0  4           0  0  0
   -2.0464    0.0105   -1.3239 C   0  0  0  0  0  4           0  0  0
   -8.2286   -1.2585    1.9012 C   0  0  0  0  0  4           0  0  0
   -8.2794   -3.9240    5.4530 C   0  0  0  0  0  4           0  0  0
   -2.8079   -0.0499   -0.1383 C   0  0  0  0  0  4           0  0  0
   -8.6366   -5.2352    5.1143 C   0  0  0  0  0  4           0  0  0
   -7.6431   -6.0408    7.1762 C   0  0  0  0  0  4           0  0  0
   -0.6578    0.0295   -1.2337 C   0  0  0  0  0  4           0  0  0
   -2.1277   -0.0537    1.1074 C   0  0  0  0  0  4           0  0  0
   -7.0223   -0.6500    2.1652 C   0  0  0  0  0  4           0  0  0
   -7.6037   -3.6798    6.6549 C   0  0  0  0  0  4           0  0  0
   -7.2886   -4.7355    7.5121 C   0  0  0  0  0  4           0  0  0
   -9.2369   -2.8922    3.4112 C   0  0  0  0  0  4           0  0  0
    1.9792    1.1167    0.6447 C   0  0  0  0  0  4           0  0  0
    8.0679    1.9596   -4.6043 C   0  0  0  0  0  4           0  0  0
    0.0261   -1.3142    2.9862 C   0  0  0  0  0  4           0  0  0
    3.2140    1.7289   -1.5157 C   0  0  0  0  0  4           0  0  0
    5.4195    0.8271   -1.9901 C   0  0  0  0  0  4           0  0  0
    4.3699    2.3801   -3.5227 C   0  0  0  0  0  4           0  0  0
   -9.4064   -1.5397    2.7580 C   0  0  0  0  0  4           0  0  0
    6.7070    1.5677   -4.0430 C   0  0  1  0  0  4           0  0  0
    3.3182    1.3979   -0.0252 C   0  0  0  0  0  4           0  0  0
    6.8031    1.1188   -2.5785 C   0  0  0  0  0  4           0  0  0
    5.7165    2.7294   -4.1581 C   0  0  0  0  0  4           0  0  0
  1 13  1  0     0  0
  2 14  1  0     0  0
  2 31  1  0     0  0
  3 15  1  0     0  0
  3 33  1  0     0  0
  4 30  2  0     0  0
  5 32  1  0     0  0
  6  7  1  0     0  0
  6 20  1  0     0  0
  7 17  2  0     0  0
  8 16  1  0     0  0
  8 18  2  0     0  0
  9 16  2  0     0  0
  9 19  1  0     0  0
 10 17  1  0     0  0
 10 18  1  0     0  0
 11 21  1  0     0  0
 11 30  1  0     0  0
 12 34  1  0     0  0
 12 35  1  0     0  0
 12 36  1  0     0  0
 13 23  1  0     0  0
 13 24  2  0     0  0
 14 15  1  0     0  0
 14 25  2  0     0  0
 15 26  2  0     0  0
 17 27  1  0     0  0
 18 22  1  0     0  0
 19 22  2  0     0  0
 19 25  1  0     0  0
 20 27  2  0     0  0
 20 37  1  0     0  0
 21 23  2  0     0  0
 21 28  1  0     0  0
 22 26  1  0     0  0
 24 29  1  0     0  0
 28 29  2  0     0  0
 30 37  1  0     0  0
 31 39  1  0     0  0
 32 38  1  0     0  0
 34 39  1  0     0  0
 35 40  1  0     0  0
 36 41  1  0     0  0
 38 40  1  0     0  0
 38 41  1  0     0  0
M  END
> <standard_type>
pIC50

> <# Confs.>
25

> <canonical_smiles>
ClC1=CC=CC(NC(CC2=CC(NC3=NC=NC4=C3C=C(OC)C(OCCCN5CCC(CO)CC5)=C4)=NN2)=O)=C1

> <standard_relation>
=

> <Publication_ID>
nan

> <predicted_activity_value>
8.443697499232712

> <actual_activity_value>
8.096910013008056

> <Compound>
23

> <standard_units>
nM

> hash
8647914449690908827

$$$$
23_
XXILIB    08252103423D 0   0.00000     0.00000

 41 45  0     1  0            999 V2000
   -8.7566   -7.8980    5.5651 Cl  0  0  0  0  0  1           0  0  0
    1.3659   -0.0000    0.0000 O   0  0  0  0  0  2           0  0  0
   -0.1962   -0.0175    2.4379 O   0  0  0  0  0  2           0  0  0
   -9.6473   -3.9223    2.8777 O   0  0  0  0  0  2           0  0  0
    8.9847   -0.8326   -4.5187 O   0  0  0  0  0  2           0  0  0
   -8.1666   -1.6128    0.5838 N   0  0  0  0  0  3           0  0  0
   -7.0189   -1.2740   -0.0225 N   0  0  0  0  0  3           0  0  0
   -4.7869   -0.0279   -1.5260 N   0  0  0  0  0  3           0  0  0
   -2.6131    0.0479   -2.5368 N   0  0  0  0  0  3           0  0  0
   -5.0558   -0.1440    0.8413 N   0  0  0  0  0  3           0  0  0
   -8.5763   -2.8248    4.6256 N   0  0  0  0  0  3           0  0  0
    5.5766   -0.5514   -0.6181 N   0  0  1  0  0  3           0  0  0
   -8.3157   -6.2845    5.9793 C   0  0  0  0  0  4           0  0  0
   -0.0000    0.0000    0.0000 C   0  0  0  0  0  4           0  0  0
   -0.7341    0.0000    1.1817 C   0  0  0  0  0  4           0  0  0
   -3.9535    0.0332   -2.5741 C   0  0  0  0  0  4           0  0  0
   -6.3025   -0.6758    0.9415 C   0  0  0  0  0  4           0  0  0
   -4.2166   -0.0931   -0.2975 C   0  0  0  0  0  4           0  0  0
   -2.0464    0.0105   -1.3239 C   0  0  0  0  0  4           0  0  0
   -8.2286   -1.2585    1.9012 C   0  0  0  0  0  4           0  0  0
   -8.2794   -3.9240    5.4530 C   0  0  0  0  0  4           0  0  0
   -2.8079   -0.0499   -0.1383 C   0  0  0  0  0  4           0  0  0
   -8.6366   -5.2352    5.1143 C   0  0  0  0  0  4           0  0  0
   -7.6431   -6.0408    7.1762 C   0  0  0  0  0  4           0  0  0
   -0.6578    0.0295   -1.2337 C   0  0  0  0  0  4           0  0  0
   -2.1277   -0.0537    1.1074 C   0  0  0  0  0  4           0  0  0
   -7.0223   -0.6500    2.1652 C   0  0  0  0  0  4           0  0  0
   -7.6037   -3.6798    6.6549 C   0  0  0  0  0  4           0  0  0
   -7.2886   -4.7355    7.5121 C   0  0  0  0  0  4           0  0  0
   -9.2369   -2.8922    3.4112 C   0  0  0  0  0  4           0  0  0
    1.9792   -1.1167    0.6447 C   0  0  0  0  0  4           0  0  0
    9.1025   -0.5414   -3.1319 C   0  0  0  0  0  4           0  0  0
    0.0602    1.2637    3.0074 C   0  0  0  0  0  4           0  0  0
    4.3065   -0.2313    0.0392 C   0  0  0  0  0  4           0  0  0
    5.3839   -0.8760   -2.0408 C   0  0  0  0  0  4           0  0  0
    6.5198    0.5671   -0.4630 C   0  0  0  0  0  4           0  0  0
   -9.4064   -1.5397    2.7580 C   0  0  0  0  0  4           0  0  0
    7.7517   -0.1356   -2.5561 C   0  0  1  0  0  4           0  0  0
    3.3182   -1.3979   -0.0252 C   0  0  0  0  0  4           0  0  0
    6.7078   -1.2494   -2.7141 C   0  0  0  0  0  4           0  0  0
    7.8813    0.2382   -1.0772 C   0  0  0  0  0  4           0  0  0
  1 13  1  0     0  0
  2 14  1  0     0  0
  2 31  1  0     0  0
  3 15  1  0     0  0
  3 33  1  0     0  0
  4 30  2  0     0  0
  5 32  1  0     0  0
  6  7  1  0     0  0
  6 20  1  0     0  0
  7 17  2  0     0  0
  8 16  1  0     0  0
  8 18  2  0     0  0
  9 16  2  0     0  0
  9 19  1  0     0  0
 10 17  1  0     0  0
 10 18  1  0     0  0
 11 21  1  0     0  0
 11 30  1  0     0  0
 12 34  1  0     0  0
 12 35  1  0     0  0
 12 36  1  0     0  0
 13 23  1  0     0  0
 13 24  2  0     0  0
 14 15  1  0     0  0
 14 25  2  0     0  0
 15 26  2  0     0  0
 17 27  1  0     0  0
 18 22  1  0     0  0
 19 22  2  0     0  0
 19 25  1  0     0  0
 20 27  2  0     0  0
 20 37  1  0     0  0
 21 23  2  0     0  0
 21 28  1  0     0  0
 22 26  1  0     0  0
 24 29  1  0     0  0
 28 29  2  0     0  0
 30 37  1  0     0  0
 31 39  1  0     0  0
 32 38  1  0     0  0
 34 39  1  0     0  0
 35 40  1  0     0  0
 36 41  1  0     0  0
 38 40  1  0     0  0
 38 41  1  0     0  0
M  END
> <standard_type>
pIC50

> <# Confs.>
25

> <canonical_smiles>
ClC1=CC=CC(NC(CC2=CC(NC3=NC=NC4=C3C=C(OC)C(OCCCN5CCC(CO)CC5)=C4)=NN2)=O)=C1

> <standard_relation>
=

> <Publication_ID>
nan

> <predicted_activity_value>
8.443697499232712

> <actual_activity_value>
8.096910013008056

> <Compound>
23

> <standard_units>
nM

> hash
8647914449690908827

$$$$
23_
XXILIB    08252103423D 0   0.00000     0.00000

 41 45  0     1  0            999 V2000
   -8.6270    7.1905    6.2786 Cl  0  0  0  0  0  1           0  0  0
    1.3659   -0.0000    0.0000 O   0  0  0  0  0  2           0  0  0
   -0.1962   -0.0175    2.4379 O   0  0  0  0  0  2           0  0  0
   -9.5892    3.4941    3.2402 O   0  0  0  0  0  2           0  0  0
    8.5852   -4.8403   -3.6348 O   0  0  0  0  0  2           0  0  0
   -8.1434    1.3908    0.7353 N   0  0  0  0  0  3           0  0  0
   -7.0026    1.0931    0.0955 N   0  0  0  0  0  3           0  0  0
   -4.7869   -0.0279   -1.5260 N   0  0  0  0  0  3           0  0  0
   -2.6131    0.0479   -2.5368 N   0  0  0  0  0  3           0  0  0
   -5.0558   -0.1440    0.8413 N   0  0  0  0  0  3           0  0  0
   -8.5554    2.2194    4.8872 N   0  0  0  0  0  3           0  0  0
    4.5265   -1.9909   -2.1125 N   0  0  1  0  0  3           0  0  0
   -8.2356    5.5350    6.5531 C   0  0  0  0  0  4           0  0  0
    0.0000    0.0000    0.0000 C   0  0  0  0  0  4           0  0  0
   -0.7341    0.0000    1.1817 C   0  0  0  0  0  4           0  0  0
   -3.9535    0.0332   -2.5741 C   0  0  0  0  0  4           0  0  0
   -6.2951    0.3922    0.9947 C   0  0  0  0  0  4           0  0  0
   -4.2166   -0.0931   -0.2975 C   0  0  0  0  0  4           0  0  0
   -2.0464    0.0105   -1.3239 C   0  0  0  0  0  4           0  0  0
   -8.2077    0.9153    2.0139 C   0  0  0  0  0  4           0  0  0
   -8.2485    3.2312    5.8164 C   0  0  0  0  0  4           0  0  0
   -2.8079   -0.0499   -0.1383 C   0  0  0  0  0  4           0  0  0
   -8.5689    4.5762    5.5929 C   0  0  0  0  0  4           0  0  0
   -7.5877    5.1674    7.7320 C   0  0  0  0  0  4           0  0  0
   -0.6578    0.0295   -1.2337 C   0  0  0  0  0  4           0  0  0
   -2.1277   -0.0537    1.1074 C   0  0  0  0  0  4           0  0  0
   -7.0169    0.2531    2.2095 C   0  0  0  0  0  4           0  0  0
   -7.5982    2.8626    7.0004 C   0  0  0  0  0  4           0  0  0
   -7.2692    3.8287    7.9527 C   0  0  0  0  0  4           0  0  0
   -9.1915    2.4132    3.6734 C   0  0  0  0  0  4           0  0  0
    1.9792   -1.1167    0.6447 C   0  0  0  0  0  4           0  0  0
    7.8987   -3.7303   -4.1992 C   0  0  0  0  0  4           0  0  0
    0.0602    1.2637    3.0074 C   0  0  0  0  0  4           0  0  0
    3.2140   -1.7289   -1.5157 C   0  0  0  0  0  4           0  0  0
    5.1996   -3.1280   -1.4638 C   0  0  0  0  0  4           0  0  0
    4.3845   -2.2264   -3.5579 C   0  0  0  0  0  4           0  0  0
   -9.3801    1.1303    2.8968 C   0  0  0  0  0  4           0  0  0
    6.5138   -3.5898   -3.5804 C   0  0  1  0  0  4           0  0  0
    3.3182   -1.3979   -0.0252 C   0  0  0  0  0  4           0  0  0
    6.5877   -3.3728   -2.0629 C   0  0  0  0  0  4           0  0  0
    5.7447   -2.4339   -4.2257 C   0  0  0  0  0  4           0  0  0
  1 13  1  0     0  0
  2 14  1  0     0  0
  2 31  1  0     0  0
  3 15  1  0     0  0
  3 33  1  0     0  0
  4 30  2  0     0  0
  5 32  1  0     0  0
  6  7  1  0     0  0
  6 20  1  0     0  0
  7 17  2  0     0  0
  8 16  1  0     0  0
  8 18  2  0     0  0
  9 16  2  0     0  0
  9 19  1  0     0  0
 10 17  1  0     0  0
 10 18  1  0     0  0
 11 21  1  0     0  0
 11 30  1  0     0  0
 12 34  1  0     0  0
 12 35  1  0     0  0
 12 36  1  0     0  0
 13 23  1  0     0  0
 13 24  2  0     0  0
 14 15  1  0     0  0
 14 25  2  0     0  0
 15 26  2  0     0  0
 17 27  1  0     0  0
 18 22  1  0     0  0
 19 22  2  0     0  0
 19 25  1  0     0  0
 20 27  2  0     0  0
 20 37  1  0     0  0
 21 23  2  0     0  0
 21 28  1  0     0  0
 22 26  1  0     0  0
 24 29  1  0     0  0
 28 29  2  0     0  0
 30 37  1  0     0  0
 31 39  1  0     0  0
 32 38  1  0     0  0
 34 39  1  0     0  0
 35 40  1  0     0  0
 36 41  1  0     0  0
 38 40  1  0     0  0
 38 41  1  0     0  0
M  END
> <standard_type>
pIC50

> <# Confs.>
25

> <canonical_smiles>
ClC1=CC=CC(NC(CC2=CC(NC3=NC=NC4=C3C=C(OC)C(OCCCN5CCC(CO)CC5)=C4)=NN2)=O)=C1

> <standard_relation>
=

> <Publication_ID>
nan

> <predicted_activity_value>
8.443697499232712

> <actual_activity_value>
8.096910013008056

> <Compound>
23

> <standard_units>
nM

> hash
8647914449690908827

$$$$
23_
XXILIB    08252103423D 0   0.00000     0.00000

 41 45  0     1  0            999 V2000
  -14.0209   -3.9805    1.8614 Cl  0  0  0  0  0  1           0  0  0
    1.3659   -0.0000    0.0000 O   0  0  0  0  0  2           0  0  0
   -0.1962   -0.0175    2.4379 O   0  0  0  0  0  2           0  0  0
  -11.2533    0.0396    1.8717 O   0  0  0  0  0  2           0  0  0
    8.5852   -4.8403   -3.6348 O   0  0  0  0  0  2           0  0  0
   -8.1434    1.3908    0.7353 N   0  0  0  0  0  3           0  0  0
   -7.0026    1.0931    0.0955 N   0  0  0  0  0  3           0  0  0
   -4.7869   -0.0279   -1.5260 N   0  0  0  0  0  3           0  0  0
   -2.6131    0.0479   -2.5368 N   0  0  0  0  0  3           0  0  0
   -5.0558   -0.1440    0.8413 N   0  0  0  0  0  3           0  0  0
  -10.1155   -1.0684    3.5700 N   0  0  0  0  0  3           0  0  0
    4.5265   -1.9909   -2.1125 N   0  0  1  0  0  3           0  0  0
  -12.6675   -3.6939    2.8886 C   0  0  0  0  0  4           0  0  0
    0.0000    0.0000    0.0000 C   0  0  0  0  0  4           0  0  0
   -0.7341    0.0000    1.1817 C   0  0  0  0  0  4           0  0  0
   -3.9535    0.0332   -2.5741 C   0  0  0  0  0  4           0  0  0
   -6.2951    0.3922    0.9947 C   0  0  0  0  0  4           0  0  0
   -4.2166   -0.0931   -0.2975 C   0  0  0  0  0  4           0  0  0
   -2.0464    0.0105   -1.3239 C   0  0  0  0  0  4           0  0  0
   -8.2077    0.9153    2.0139 C   0  0  0  0  0  4           0  0  0
  -10.8640   -2.2592    3.6231 C   0  0  0  0  0  4           0  0  0
   -2.8079   -0.0499   -0.1383 C   0  0  0  0  0  4           0  0  0
  -11.9628   -2.4918    2.7863 C   0  0  0  0  0  4           0  0  0
  -12.2886   -4.6652    3.8147 C   0  0  0  0  0  4           0  0  0
   -0.6578    0.0295   -1.2337 C   0  0  0  0  0  4           0  0  0
   -2.1277   -0.0537    1.1074 C   0  0  0  0  0  4           0  0  0
   -7.0169    0.2531    2.2095 C   0  0  0  0  0  4           0  0  0
  -10.4838   -3.2350    4.5527 C   0  0  0  0  0  4           0  0  0
  -11.1953   -4.4322    4.6470 C   0  0  0  0  0  4           0  0  0
  -10.3578   -0.0079    2.7144 C   0  0  0  0  0  4           0  0  0
    1.9792   -1.1167    0.6447 C   0  0  0  0  0  4           0  0  0
    7.8987   -3.7303   -4.1992 C   0  0  0  0  0  4           0  0  0
    0.0602    1.2637    3.0074 C   0  0  0  0  0  4           0  0  0
    3.2140   -1.7289   -1.5157 C   0  0  0  0  0  4           0  0  0
    5.1996   -3.1280   -1.4638 C   0  0  0  0  0  4           0  0  0
    4.3845   -2.2264   -3.5579 C   0  0  0  0  0  4           0  0  0
   -9.3801    1.1303    2.8968 C   0  0  0  0  0  4           0  0  0
    6.5138   -3.5898   -3.5804 C   0  0  1  0  0  4           0  0  0
    3.3182   -1.3979   -0.0252 C   0  0  0  0  0  4           0  0  0
    6.5877   -3.3728   -2.0629 C   0  0  0  0  0  4           0  0  0
    5.7447   -2.4339   -4.2257 C   0  0  0  0  0  4           0  0  0
  1 13  1  0     0  0
  2 14  1  0     0  0
  2 31  1  0     0  0
  3 15  1  0     0  0
  3 33  1  0     0  0
  4 30  2  0     0  0
  5 32  1  0     0  0
  6  7  1  0     0  0
  6 20  1  0     0  0
  7 17  2  0     0  0
  8 16  1  0     0  0
  8 18  2  0     0  0
  9 16  2  0     0  0
  9 19  1  0     0  0
 10 17  1  0     0  0
 10 18  1  0     0  0
 11 21  1  0     0  0
 11 30  1  0     0  0
 12 34  1  0     0  0
 12 35  1  0     0  0
 12 36  1  0     0  0
 13 23  1  0     0  0
 13 24  2  0     0  0
 14 15  1  0     0  0
 14 25  2  0     0  0
 15 26  2  0     0  0
 17 27  1  0     0  0
 18 22  1  0     0  0
 19 22  2  0     0  0
 19 25  1  0     0  0
 20 27  2  0     0  0
 20 37  1  0     0  0
 21 23  2  0     0  0
 21 28  1  0     0  0
 22 26  1  0     0  0
 24 29  1  0     0  0
 28 29  2  0     0  0
 30 37  1  0     0  0
 31 39  1  0     0  0
 32 38  1  0     0  0
 34 39  1  0     0  0
 35 40  1  0     0  0
 36 41  1  0     0  0
 38 40  1  0     0  0
 38 41  1  0     0  0
M  END
> <standard_type>
pIC50

> <# Confs.>
25

> <canonical_smiles>
ClC1=CC=CC(NC(CC2=CC(NC3=NC=NC4=C3C=C(OC)C(OCCCN5CCC(CO)CC5)=C4)=NN2)=O)=C1

> <standard_relation>
=

> <Publication_ID>
nan

> <predicted_activity_value>
8.443697499232712

> <actual_activity_value>
8.096910013008056

> <Compound>
23

> <standard_units>
nM

> hash
8647914449690908827

$$$$
23_
XXILIB    08252103423D 0   0.00000     0.00000

 41 45  0     1  0            999 V2000
   -8.7566   -7.8980    5.5651 Cl  0  0  0  0  0  1           0  0  0
    1.3659   -0.0000    0.0000 O   0  0  0  0  0  2           0  0  0
   -0.1962   -0.0175    2.4379 O   0  0  0  0  0  2           0  0  0
   -9.6473   -3.9223    2.8777 O   0  0  0  0  0  2           0  0  0
    8.5852   -4.8403   -3.6348 O   0  0  0  0  0  2           0  0  0
   -8.1666   -1.6128    0.5838 N   0  0  0  0  0  3           0  0  0
   -7.0189   -1.2740   -0.0225 N   0  0  0  0  0  3           0  0  0
   -4.7869   -0.0279   -1.5260 N   0  0  0  0  0  3           0  0  0
   -2.6131    0.0479   -2.5368 N   0  0  0  0  0  3           0  0  0
   -5.0558   -0.1440    0.8413 N   0  0  0  0  0  3           0  0  0
   -8.5763   -2.8248    4.6256 N   0  0  0  0  0  3           0  0  0
    4.5265   -1.9909   -2.1125 N   0  0  1  0  0  3           0  0  0
   -8.3157   -6.2845    5.9793 C   0  0  0  0  0  4           0  0  0
   -0.0000    0.0000    0.0000 C   0  0  0  0  0  4           0  0  0
   -0.7341    0.0000    1.1817 C   0  0  0  0  0  4           0  0  0
   -3.9535    0.0332   -2.5741 C   0  0  0  0  0  4           0  0  0
   -6.3025   -0.6758    0.9415 C   0  0  0  0  0  4           0  0  0
   -4.2166   -0.0931   -0.2975 C   0  0  0  0  0  4           0  0  0
   -2.0464    0.0105   -1.3239 C   0  0  0  0  0  4           0  0  0
   -8.2286   -1.2585    1.9012 C   0  0  0  0  0  4           0  0  0
   -8.2794   -3.9240    5.4530 C   0  0  0  0  0  4           0  0  0
   -2.8079   -0.0499   -0.1383 C   0  0  0  0  0  4           0  0  0
   -8.6366   -5.2352    5.1143 C   0  0  0  0  0  4           0  0  0
   -7.6431   -6.0408    7.1762 C   0  0  0  0  0  4           0  0  0
   -0.6578    0.0295   -1.2337 C   0  0  0  0  0  4           0  0  0
   -2.1277   -0.0537    1.1074 C   0  0  0  0  0  4           0  0  0
   -7.0223   -0.6500    2.1652 C   0  0  0  0  0  4           0  0  0
   -7.6037   -3.6798    6.6549 C   0  0  0  0  0  4           0  0  0
   -7.2886   -4.7355    7.5121 C   0  0  0  0  0  4           0  0  0
   -9.2369   -2.8922    3.4112 C   0  0  0  0  0  4           0  0  0
    1.9792   -1.1167    0.6447 C   0  0  0  0  0  4           0  0  0
    7.8987   -3.7303   -4.1992 C   0  0  0  0  0  4           0  0  0
    0.0602    1.2637    3.0074 C   0  0  0  0  0  4           0  0  0
    3.2140   -1.7289   -1.5157 C   0  0  0  0  0  4           0  0  0
    5.1996   -3.1280   -1.4638 C   0  0  0  0  0  4           0  0  0
    4.3845   -2.2264   -3.5579 C   0  0  0  0  0  4           0  0  0
   -9.4064   -1.5397    2.7580 C   0  0  0  0  0  4           0  0  0
    6.5138   -3.5898   -3.5804 C   0  0  1  0  0  4           0  0  0
    3.3182   -1.3979   -0.0252 C   0  0  0  0  0  4           0  0  0
    6.5877   -3.3728   -2.0629 C   0  0  0  0  0  4           0  0  0
    5.7447   -2.4339   -4.2257 C   0  0  0  0  0  4           0  0  0
  1 13  1  0     0  0
  2 14  1  0     0  0
  2 31  1  0     0  0
  3 15  1  0     0  0
  3 33  1  0     0  0
  4 30  2  0     0  0
  5 32  1  0     0  0
  6  7  1  0     0  0
  6 20  1  0     0  0
  7 17  2  0     0  0
  8 16  1  0     0  0
  8 18  2  0     0  0
  9 16  2  0     0  0
  9 19  1  0     0  0
 10 17  1  0     0  0
 10 18  1  0     0  0
 11 21  1  0     0  0
 11 30  1  0     0  0
 12 34  1  0     0  0
 12 35  1  0     0  0
 12 36  1  0     0  0
 13 23  1  0     0  0
 13 24  2  0     0  0
 14 15  1  0     0  0
 14 25  2  0     0  0
 15 26  2  0     0  0
 17 27  1  0     0  0
 18 22  1  0     0  0
 19 22  2  0     0  0
 19 25  1  0     0  0
 20 27  2  0     0  0
 20 37  1  0     0  0
 21 23  2  0     0  0
 21 28  1  0     0  0
 22 26  1  0     0  0
 24 29  1  0     0  0
 28 29  2  0     0  0
 30 37  1  0     0  0
 31 39  1  0     0  0
 32 38  1  0     0  0
 34 39  1  0     0  0
 35 40  1  0     0  0
 36 41  1  0     0  0
 38 40  1  0     0  0
 38 41  1  0     0  0
M  END
> <standard_type>
pIC50

> <# Confs.>
25

> <canonical_smiles>
ClC1=CC=CC(NC(CC2=CC(NC3=NC=NC4=C3C=C(OC)C(OCCCN5CCC(CO)CC5)=C4)=NN2)=O)=C1

> <standard_relation>
=

> <Publication_ID>
nan

> <predicted_activity_value>
8.443697499232712

> <actual_activity_value>
8.096910013008056

> <Compound>
23

> <standard_units>
nM

> hash
8647914449690908827

$$$$
23_
XXILIB    08252103423D 0   0.00000     0.00000

 41 45  0     1  0            999 V2000
   -8.7566   -7.8980    5.5651 Cl  0  0  0  0  0  1           0  0  0
    1.3659    0.0000    0.0000 O   0  0  0  0  0  2           0  0  0
   -0.1962   -0.0175    2.4379 O   0  0  0  0  0  2           0  0  0
   -9.6473   -3.9223    2.8777 O   0  0  0  0  0  2           0  0  0
    1.3975    7.9635   -2.4384 O   0  0  0  0  0  2           0  0  0
   -8.1666   -1.6128    0.5838 N   0  0  0  0  0  3           0  0  0
   -7.0189   -1.2740   -0.0225 N   0  0  0  0  0  3           0  0  0
   -4.7869   -0.0279   -1.5260 N   0  0  0  0  0  3           0  0  0
   -2.6131    0.0479   -2.5368 N   0  0  0  0  0  3           0  0  0
   -5.0558   -0.1440    0.8413 N   0  0  0  0  0  3           0  0  0
   -8.5763   -2.8248    4.6256 N   0  0  0  0  0  3           0  0  0
    2.3924    2.9182   -1.7573 N   0  0  1  0  0  3           0  0  0
   -8.3157   -6.2845    5.9793 C   0  0  0  0  0  4           0  0  0
   -0.0000    0.0000    0.0000 C   0  0  0  0  0  4           0  0  0
   -0.7341    0.0000    1.1817 C   0  0  0  0  0  4           0  0  0
   -3.9535    0.0332   -2.5741 C   0  0  0  0  0  4           0  0  0
   -6.3025   -0.6758    0.9415 C   0  0  0  0  0  4           0  0  0
   -4.2166   -0.0931   -0.2975 C   0  0  0  0  0  4           0  0  0
   -2.0464    0.0105   -1.3239 C   0  0  0  0  0  4           0  0  0
   -8.2286   -1.2585    1.9012 C   0  0  0  0  0  4           0  0  0
   -8.2794   -3.9240    5.4530 C   0  0  0  0  0  4           0  0  0
   -2.8079   -0.0499   -0.1383 C   0  0  0  0  0  4           0  0  0
   -8.6366   -5.2352    5.1143 C   0  0  0  0  0  4           0  0  0
   -7.6431   -6.0408    7.1762 C   0  0  0  0  0  4           0  0  0
   -0.6578    0.0295   -1.2337 C   0  0  0  0  0  4           0  0  0
   -2.1277   -0.0537    1.1074 C   0  0  0  0  0  4           0  0  0
   -7.0223   -0.6500    2.1652 C   0  0  0  0  0  4           0  0  0
   -7.6037   -3.6798    6.6549 C   0  0  0  0  0  4           0  0  0
   -7.2886   -4.7355    7.5121 C   0  0  0  0  0  4           0  0  0
   -9.2369   -2.8922    3.4112 C   0  0  0  0  0  4           0  0  0
    1.9792    1.1167    0.6447 C   0  0  0  0  0  4           0  0  0
    0.8922    6.7748   -3.0330 C   0  0  0  0  0  4           0  0  0
    0.0261   -1.3142    2.9862 C   0  0  0  0  0  4           0  0  0
    3.2140    1.7289   -1.5157 C   0  0  0  0  0  4           0  0  0
    2.9488    4.1060   -1.0892 C   0  0  0  0  0  4           0  0  0
    2.2566    3.1510   -3.2037 C   0  0  0  0  0  4           0  0  0
   -9.4064   -1.5397    2.7580 C   0  0  0  0  0  4           0  0  0
    1.8531    5.6150   -2.8047 C   0  0  1  0  0  4           0  0  0
    3.3182    1.3979   -0.0252 C   0  0  0  0  0  4           0  0  0
    2.0658    5.3377   -1.3103 C   0  0  0  0  0  4           0  0  0
    1.3461    4.3452   -3.4935 C   0  0  0  0  0  4           0  0  0
  1 13  1  0     0  0
  2 14  1  0     0  0
  2 31  1  0     0  0
  3 15  1  0     0  0
  3 33  1  0     0  0
  4 30  2  0     0  0
  5 32  1  0     0  0
  6  7  1  0     0  0
  6 20  1  0     0  0
  7 17  2  0     0  0
  8 16  1  0     0  0
  8 18  2  0     0  0
  9 16  2  0     0  0
  9 19  1  0     0  0
 10 17  1  0     0  0
 10 18  1  0     0  0
 11 21  1  0     0  0
 11 30  1  0     0  0
 12 34  1  0     0  0
 12 35  1  0     0  0
 12 36  1  0     0  0
 13 23  1  0     0  0
 13 24  2  0     0  0
 14 15  1  0     0  0
 14 25  2  0     0  0
 15 26  2  0     0  0
 17 27  1  0     0  0
 18 22  1  0     0  0
 19 22  2  0     0  0
 19 25  1  0     0  0
 20 27  2  0     0  0
 20 37  1  0     0  0
 21 23  2  0     0  0
 21 28  1  0     0  0
 22 26  1  0     0  0
 24 29  1  0     0  0
 28 29  2  0     0  0
 30 37  1  0     0  0
 31 39  1  0     0  0
 32 38  1  0     0  0
 34 39  1  0     0  0
 35 40  1  0     0  0
 36 41  1  0     0  0
 38 40  1  0     0  0
 38 41  1  0     0  0
M  END
> <standard_type>
pIC50

> <# Confs.>
25

> <canonical_smiles>
ClC1=CC=CC(NC(CC2=CC(NC3=NC=NC4=C3C=C(OC)C(OCCCN5CCC(CO)CC5)=C4)=NN2)=O)=C1

> <standard_relation>
=

> <Publication_ID>
nan

> <predicted_activity_value>
8.443697499232712

> <actual_activity_value>
8.096910013008056

> <Compound>
23

> <standard_units>
nM

> hash
8647914449690908827

$$$$
23_
XXILIB    08252103423D 0   0.00000     0.00000

 41 45  0     1  0            999 V2000
   -8.6270    7.1905    6.2786 Cl  0  0  0  0  0  1           0  0  0
    1.3659    0.0000    0.0000 O   0  0  0  0  0  2           0  0  0
   -0.1962   -0.0175    2.4379 O   0  0  0  0  0  2           0  0  0
   -9.5892    3.4941    3.2402 O   0  0  0  0  0  2           0  0  0
    4.5330   -7.3669   -2.6923 O   0  0  0  0  0  2           0  0  0
   -8.1434    1.3908    0.7353 N   0  0  0  0  0  3           0  0  0
   -7.0026    1.0931    0.0955 N   0  0  0  0  0  3           0  0  0
   -4.7869   -0.0279   -1.5260 N   0  0  0  0  0  3           0  0  0
   -2.6131    0.0479   -2.5368 N   0  0  0  0  0  3           0  0  0
   -5.0558   -0.1440    0.8413 N   0  0  0  0  0  3           0  0  0
   -8.5554    2.2194    4.8872 N   0  0  0  0  0  3           0  0  0
    3.9688   -3.4028    0.6056 N   0  0  1  0  0  3           0  0  0
   -8.2356    5.5350    6.5531 C   0  0  0  0  0  4           0  0  0
    0.0000    0.0000    0.0000 C   0  0  0  0  0  4           0  0  0
   -0.7341    0.0000    1.1817 C   0  0  0  0  0  4           0  0  0
   -3.9535    0.0332   -2.5741 C   0  0  0  0  0  4           0  0  0
   -6.2951    0.3922    0.9947 C   0  0  0  0  0  4           0  0  0
   -4.2166   -0.0931   -0.2975 C   0  0  0  0  0  4           0  0  0
   -2.0464    0.0105   -1.3239 C   0  0  0  0  0  4           0  0  0
   -8.2077    0.9153    2.0139 C   0  0  0  0  0  4           0  0  0
   -8.2485    3.2312    5.8164 C   0  0  0  0  0  4           0  0  0
   -2.8079   -0.0499   -0.1383 C   0  0  0  0  0  4           0  0  0
   -8.5689    4.5762    5.5929 C   0  0  0  0  0  4           0  0  0
   -7.5877    5.1674    7.7320 C   0  0  0  0  0  4           0  0  0
   -0.6578    0.0295   -1.2337 C   0  0  0  0  0  4           0  0  0
   -2.1277   -0.0537    1.1074 C   0  0  0  0  0  4           0  0  0
   -7.0169    0.2531    2.2095 C   0  0  0  0  0  4           0  0  0
   -7.5982    2.8626    7.0004 C   0  0  0  0  0  4           0  0  0
   -7.2692    3.8287    7.9527 C   0  0  0  0  0  4           0  0  0
   -9.1915    2.4132    3.6734 C   0  0  0  0  0  4           0  0  0
    1.9792   -1.1167    0.6447 C   0  0  0  0  0  4           0  0  0
    4.1989   -7.2780   -1.3130 C   0  0  0  0  0  4           0  0  0
    0.0602    1.2637    3.0074 C   0  0  0  0  0  4           0  0  0
    4.2734   -2.1056    1.2156 C   0  0  0  0  0  4           0  0  0
    4.3051   -3.4201   -0.8273 C   0  0  0  0  0  4           0  0  0
    4.6802   -4.4745    1.3197 C   0  0  0  0  0  4           0  0  0
   -9.3801    1.1303    2.8968 C   0  0  0  0  0  4           0  0  0
    4.6308   -5.9316   -0.7460 C   0  0  1  0  0  4           0  0  0
    3.4927   -0.9657    0.5575 C   0  0  0  0  0  4           0  0  0
    3.9476   -4.7635   -1.4700 C   0  0  0  0  0  4           0  0  0
    4.3295   -5.8510    0.7528 C   0  0  0  0  0  4           0  0  0
  1 13  1  0     0  0
  2 14  1  0     0  0
  2 31  1  0     0  0
  3 15  1  0     0  0
  3 33  1  0     0  0
  4 30  2  0     0  0
  5 32  1  0     0  0
  6  7  1  0     0  0
  6 20  1  0     0  0
  7 17  2  0     0  0
  8 16  1  0     0  0
  8 18  2  0     0  0
  9 16  2  0     0  0
  9 19  1  0     0  0
 10 17  1  0     0  0
 10 18  1  0     0  0
 11 21  1  0     0  0
 11 30  1  0     0  0
 12 34  1  0     0  0
 12 35  1  0     0  0
 12 36  1  0     0  0
 13 23  1  0     0  0
 13 24  2  0     0  0
 14 15  1  0     0  0
 14 25  2  0     0  0
 15 26  2  0     0  0
 17 27  1  0     0  0
 18 22  1  0     0  0
 19 22  2  0     0  0
 19 25  1  0     0  0
 20 27  2  0     0  0
 20 37  1  0     0  0
 21 23  2  0     0  0
 21 28  1  0     0  0
 22 26  1  0     0  0
 24 29  1  0     0  0
 28 29  2  0     0  0
 30 37  1  0     0  0
 31 39  1  0     0  0
 32 38  1  0     0  0
 34 39  1  0     0  0
 35 40  1  0     0  0
 36 41  1  0     0  0
 38 40  1  0     0  0
 38 41  1  0     0  0
M  END
> <standard_type>
pIC50

> <# Confs.>
25

> <canonical_smiles>
ClC1=CC=CC(NC(CC2=CC(NC3=NC=NC4=C3C=C(OC)C(OCCCN5CCC(CO)CC5)=C4)=NN2)=O)=C1

> <standard_relation>
=

> <Publication_ID>
nan

> <predicted_activity_value>
8.443697499232712

> <actual_activity_value>
8.096910013008056

> <Compound>
23

> <standard_units>
nM

> hash
8647914449690908827

$$$$
23_
XXILIB    08252103423D 0   0.00000     0.00000

 41 45  0     1  0            999 V2000
  -13.9671    3.7143    2.1883 Cl  0  0  0  0  0  1           0  0  0
    1.3659    0.0000    0.0000 O   0  0  0  0  0  2           0  0  0
   -0.1962   -0.0175    2.4379 O   0  0  0  0  0  2           0  0  0
  -11.2620   -0.3328    1.8363 O   0  0  0  0  0  2           0  0  0
    7.1646    0.8455    6.1001 O   0  0  0  0  0  2           0  0  0
   -8.1666   -1.6128    0.5838 N   0  0  0  0  0  3           0  0  0
   -7.0189   -1.2740   -0.0225 N   0  0  0  0  0  3           0  0  0
   -4.7869   -0.0279   -1.5260 N   0  0  0  0  0  3           0  0  0
   -2.6131    0.0479   -2.5368 N   0  0  0  0  0  3           0  0  0
   -5.0558   -0.1440    0.8413 N   0  0  0  0  0  3           0  0  0
  -10.1330    0.5821    3.6515 N   0  0  0  0  0  3           0  0  0
    4.3846    2.3721    1.9952 N   0  0  1  0  0  3           0  0  0
  -12.6408    3.2993    3.2071 C   0  0  0  0  0  4           0  0  0
   -0.0000    0.0000    0.0000 C   0  0  0  0  0  4           0  0  0
   -0.7341    0.0000    1.1817 C   0  0  0  0  0  4           0  0  0
   -3.9535    0.0332   -2.5741 C   0  0  0  0  0  4           0  0  0
   -6.3025   -0.6758    0.9415 C   0  0  0  0  0  4           0  0  0
   -4.2166   -0.0931   -0.2975 C   0  0  0  0  0  4           0  0  0
   -2.0464    0.0105   -1.3239 C   0  0  0  0  0  4           0  0  0
   -8.2286   -1.2585    1.9012 C   0  0  0  0  0  4           0  0  0
  -10.8703    1.7692    3.8191 C   0  0  0  0  0  4           0  0  0
   -2.8079   -0.0499   -0.1383 C   0  0  0  0  0  4           0  0  0
  -11.9494    2.1045    2.9914 C   0  0  0  0  0  4           0  0  0
  -12.2687    4.1618    4.2378 C   0  0  0  0  0  4           0  0  0
   -0.6578    0.0295   -1.2337 C   0  0  0  0  0  4           0  0  0
   -2.1277   -0.0537    1.1074 C   0  0  0  0  0  4           0  0  0
   -7.0223   -0.6500    2.1652 C   0  0  0  0  0  4           0  0  0
  -10.4973    2.6355    4.8541 C   0  0  0  0  0  4           0  0  0
  -11.1946    3.8270    5.0602 C   0  0  0  0  0  4           0  0  0
  -10.3685   -0.3765    2.6814 C   0  0  0  0  0  4           0  0  0
    1.9792    1.1167    0.6447 C   0  0  0  0  0  4           0  0  0
    6.3393    1.9736    5.8385 C   0  0  0  0  0  4           0  0  0
    0.0261   -1.3142    2.9862 C   0  0  0  0  0  4           0  0  0
    4.0820    2.5797    0.5764 C   0  0  0  0  0  4           0  0  0
    5.2120    1.1725    2.2029 C   0  0  0  0  0  4           0  0  0
    5.0479    3.5634    2.5481 C   0  0  0  0  0  4           0  0  0
   -9.4064   -1.5397    2.7580 C   0  0  0  0  0  4           0  0  0
    6.1525    2.1605    4.3383 C   0  0  1  0  0  4           0  0  0
    3.3182    1.3979   -0.0252 C   0  0  0  0  0  4           0  0  0
    5.4920    0.9363    3.6900 C   0  0  0  0  0  4           0  0  0
    5.3152    3.4084    4.0460 C   0  0  0  0  0  4           0  0  0
  1 13  1  0     0  0
  2 14  1  0     0  0
  2 31  1  0     0  0
  3 15  1  0     0  0
  3 33  1  0     0  0
  4 30  2  0     0  0
  5 32  1  0     0  0
  6  7  1  0     0  0
  6 20  1  0     0  0
  7 17  2  0     0  0
  8 16  1  0     0  0
  8 18  2  0     0  0
  9 16  2  0     0  0
  9 19  1  0     0  0
 10 17  1  0     0  0
 10 18  1  0     0  0
 11 21  1  0     0  0
 11 30  1  0     0  0
 12 34  1  0     0  0
 12 35  1  0     0  0
 12 36  1  0     0  0
 13 23  1  0     0  0
 13 24  2  0     0  0
 14 15  1  0     0  0
 14 25  2  0     0  0
 15 26  2  0     0  0
 17 27  1  0     0  0
 18 22  1  0     0  0
 19 22  2  0     0  0
 19 25  1  0     0  0
 20 27  2  0     0  0
 20 37  1  0     0  0
 21 23  2  0     0  0
 21 28  1  0     0  0
 22 26  1  0     0  0
 24 29  1  0     0  0
 28 29  2  0     0  0
 30 37  1  0     0  0
 31 39  1  0     0  0
 32 38  1  0     0  0
 34 39  1  0     0  0
 35 40  1  0     0  0
 36 41  1  0     0  0
 38 40  1  0     0  0
 38 41  1  0     0  0
M  END
> <standard_type>
pIC50

> <# Confs.>
25

> <canonical_smiles>
ClC1=CC=CC(NC(CC2=CC(NC3=NC=NC4=C3C=C(OC)C(OCCCN5CCC(CO)CC5)=C4)=NN2)=O)=C1

> <standard_relation>
=

> <Publication_ID>
nan

> <predicted_activity_value>
8.443697499232712

> <actual_activity_value>
8.096910013008056

> <Compound>
23

> <standard_units>
nM

> hash
8647914449690908827

$$$$
23_
XXILIB    08252103423D 0   0.00000     0.00000

 41 45  0     1  0            999 V2000
   -8.6270    7.1905    6.2786 Cl  0  0  0  0  0  1           0  0  0
    1.3659    0.0000    0.0000 O   0  0  0  0  0  2           0  0  0
   -0.1962   -0.0175    2.4379 O   0  0  0  0  0  2           0  0  0
   -9.5892    3.4941    3.2402 O   0  0  0  0  0  2           0  0  0
   10.4526   -2.3158   -0.9623 O   0  0  0  0  0  2           0  0  0
   -8.1434    1.3908    0.7353 N   0  0  0  0  0  3           0  0  0
   -7.0026    1.0931    0.0955 N   0  0  0  0  0  3           0  0  0
   -4.7869   -0.0279   -1.5260 N   0  0  0  0  0  3           0  0  0
   -2.6131    0.0479   -2.5368 N   0  0  0  0  0  3           0  0  0
   -5.0558   -0.1440    0.8413 N   0  0  0  0  0  3           0  0  0
   -8.5554    2.2194    4.8872 N   0  0  0  0  0  3           0  0  0
    5.3609   -2.8086   -0.1017 N   0  0  1  0  0  3           0  0  0
   -8.2356    5.5350    6.5531 C   0  0  0  0  0  4           0  0  0
    0.0000    0.0000    0.0000 C   0  0  0  0  0  4           0  0  0
   -0.7341    0.0000    1.1817 C   0  0  0  0  0  4           0  0  0
   -3.9535    0.0332   -2.5741 C   0  0  0  0  0  4           0  0  0
   -6.2951    0.3922    0.9947 C   0  0  0  0  0  4           0  0  0
   -4.2166   -0.0931   -0.2975 C   0  0  0  0  0  4           0  0  0
   -2.0464    0.0105   -1.3239 C   0  0  0  0  0  4           0  0  0
   -8.2077    0.9153    2.0139 C   0  0  0  0  0  4           0  0  0
   -8.2485    3.2312    5.8164 C   0  0  0  0  0  4           0  0  0
   -2.8079   -0.0499   -0.1383 C   0  0  0  0  0  4           0  0  0
   -8.5689    4.5762    5.5929 C   0  0  0  0  0  4           0  0  0
   -7.5877    5.1674    7.7320 C   0  0  0  0  0  4           0  0  0
   -0.6578    0.0295   -1.2337 C   0  0  0  0  0  4           0  0  0
   -2.1277   -0.0537    1.1074 C   0  0  0  0  0  4           0  0  0
   -7.0169    0.2531    2.2095 C   0  0  0  0  0  4           0  0  0
   -7.5982    2.8626    7.0004 C   0  0  0  0  0  4           0  0  0
   -7.2692    3.8287    7.9527 C   0  0  0  0  0  4           0  0  0
   -9.1915    2.4132    3.6734 C   0  0  0  0  0  4           0  0  0
    1.9792   -1.1167    0.6447 C   0  0  0  0  0  4           0  0  0
    9.5444   -3.4068   -1.0458 C   0  0  0  0  0  4           0  0  0
    0.0602    1.2637    3.0074 C   0  0  0  0  0  4           0  0  0
    4.0820   -2.5797    0.5764 C   0  0  0  0  0  4           0  0  0
    6.2417   -1.6329   -0.0087 C   0  0  0  0  0  4           0  0  0
    6.0213   -3.9986    0.4573 C   0  0  0  0  0  4           0  0  0
   -9.3801    1.1303    2.8968 C   0  0  0  0  0  4           0  0  0
    8.2845   -3.1139   -0.2411 C   0  0  1  0  0  4           0  0  0
    3.3182   -1.3979   -0.0252 C   0  0  0  0  0  4           0  0  0
    7.5605   -1.8612   -0.7530 C   0  0  0  0  0  4           0  0  0
    7.3273   -4.3081   -0.2759 C   0  0  0  0  0  4           0  0  0
  1 13  1  0     0  0
  2 14  1  0     0  0
  2 31  1  0     0  0
  3 15  1  0     0  0
  3 33  1  0     0  0
  4 30  2  0     0  0
  5 32  1  0     0  0
  6  7  1  0     0  0
  6 20  1  0     0  0
  7 17  2  0     0  0
  8 16  1  0     0  0
  8 18  2  0     0  0
  9 16  2  0     0  0
  9 19  1  0     0  0
 10 17  1  0     0  0
 10 18  1  0     0  0
 11 21  1  0     0  0
 11 30  1  0     0  0
 12 34  1  0     0  0
 12 35  1  0     0  0
 12 36  1  0     0  0
 13 23  1  0     0  0
 13 24  2  0     0  0
 14 15  1  0     0  0
 14 25  2  0     0  0
 15 26  2  0     0  0
 17 27  1  0     0  0
 18 22  1  0     0  0
 19 22  2  0     0  0
 19 25  1  0     0  0
 20 27  2  0     0  0
 20 37  1  0     0  0
 21 23  2  0     0  0
 21 28  1  0     0  0
 22 26  1  0     0  0
 24 29  1  0     0  0
 28 29  2  0     0  0
 30 37  1  0     0  0
 31 39  1  0     0  0
 32 38  1  0     0  0
 34 39  1  0     0  0
 35 40  1  0     0  0
 36 41  1  0     0  0
 38 40  1  0     0  0
 38 41  1  0     0  0
M  END
> <standard_type>
pIC50

> <# Confs.>
25

> <canonical_smiles>
ClC1=CC=CC(NC(CC2=CC(NC3=NC=NC4=C3C=C(OC)C(OCCCN5CCC(CO)CC5)=C4)=NN2)=O)=C1

> <standard_relation>
=

> <Publication_ID>
nan

> <predicted_activity_value>
8.443697499232712

> <actual_activity_value>
8.096910013008056

> <Compound>
23

> <standard_units>
nM

> hash
8647914449690908827

$$$$
23_
XXILIB    08252103423D 0   0.00000     0.00000

 41 45  0     1  0            999 V2000
  -14.0209   -3.9805    1.8614 Cl  0  0  0  0  0  1           0  0  0
    1.3659    0.0000    0.0000 O   0  0  0  0  0  2           0  0  0
   -0.1962   -0.0175    2.4379 O   0  0  0  0  0  2           0  0  0
  -11.2533    0.0396    1.8717 O   0  0  0  0  0  2           0  0  0
    4.5330   -7.3669   -2.6923 O   0  0  0  0  0  2           0  0  0
   -8.1434    1.3908    0.7353 N   0  0  0  0  0  3           0  0  0
   -7.0026    1.0931    0.0955 N   0  0  0  0  0  3           0  0  0
   -4.7869   -0.0279   -1.5260 N   0  0  0  0  0  3           0  0  0
   -2.6131    0.0479   -2.5368 N   0  0  0  0  0  3           0  0  0
   -5.0558   -0.1440    0.8413 N   0  0  0  0  0  3           0  0  0
  -10.1155   -1.0684    3.5700 N   0  0  0  0  0  3           0  0  0
    3.9688   -3.4028    0.6056 N   0  0  1  0  0  3           0  0  0
  -12.6675   -3.6939    2.8886 C   0  0  0  0  0  4           0  0  0
    0.0000    0.0000    0.0000 C   0  0  0  0  0  4           0  0  0
   -0.7341    0.0000    1.1817 C   0  0  0  0  0  4           0  0  0
   -3.9535    0.0332   -2.5741 C   0  0  0  0  0  4           0  0  0
   -6.2951    0.3922    0.9947 C   0  0  0  0  0  4           0  0  0
   -4.2166   -0.0931   -0.2975 C   0  0  0  0  0  4           0  0  0
   -2.0464    0.0105   -1.3239 C   0  0  0  0  0  4           0  0  0
   -8.2077    0.9153    2.0139 C   0  0  0  0  0  4           0  0  0
  -10.8640   -2.2592    3.6231 C   0  0  0  0  0  4           0  0  0
   -2.8079   -0.0499   -0.1383 C   0  0  0  0  0  4           0  0  0
  -11.9628   -2.4918    2.7863 C   0  0  0  0  0  4           0  0  0
  -12.2886   -4.6652    3.8147 C   0  0  0  0  0  4           0  0  0
   -0.6578    0.0295   -1.2337 C   0  0  0  0  0  4           0  0  0
   -2.1277   -0.0537    1.1074 C   0  0  0  0  0  4           0  0  0
   -7.0169    0.2531    2.2095 C   0  0  0  0  0  4           0  0  0
  -10.4838   -3.2350    4.5527 C   0  0  0  0  0  4           0  0  0
  -11.1953   -4.4322    4.6470 C   0  0  0  0  0  4           0  0  0
  -10.3578   -0.0079    2.7144 C   0  0  0  0  0  4           0  0  0
    1.9792   -1.1167    0.6447 C   0  0  0  0  0  4           0  0  0
    4.1989   -7.2780   -1.3130 C   0  0  0  0  0  4           0  0  0
    0.0602    1.2637    3.0074 C   0  0  0  0  0  4           0  0  0
    4.2734   -2.1056    1.2156 C   0  0  0  0  0  4           0  0  0
    4.3051   -3.4201   -0.8273 C   0  0  0  0  0  4           0  0  0
    4.6802   -4.4745    1.3197 C   0  0  0  0  0  4           0  0  0
   -9.3801    1.1303    2.8968 C   0  0  0  0  0  4           0  0  0
    4.6308   -5.9316   -0.7460 C   0  0  1  0  0  4           0  0  0
    3.4927   -0.9657    0.5575 C   0  0  0  0  0  4           0  0  0
    3.9476   -4.7635   -1.4700 C   0  0  0  0  0  4           0  0  0
    4.3295   -5.8510    0.7528 C   0  0  0  0  0  4           0  0  0
  1 13  1  0     0  0
  2 14  1  0     0  0
  2 31  1  0     0  0
  3 15  1  0     0  0
  3 33  1  0     0  0
  4 30  2  0     0  0
  5 32  1  0     0  0
  6  7  1  0     0  0
  6 20  1  0     0  0
  7 17  2  0     0  0
  8 16  1  0     0  0
  8 18  2  0     0  0
  9 16  2  0     0  0
  9 19  1  0     0  0
 10 17  1  0     0  0
 10 18  1  0     0  0
 11 21  1  0     0  0
 11 30  1  0     0  0
 12 34  1  0     0  0
 12 35  1  0     0  0
 12 36  1  0     0  0
 13 23  1  0     0  0
 13 24  2  0     0  0
 14 15  1  0     0  0
 14 25  2  0     0  0
 15 26  2  0     0  0
 17 27  1  0     0  0
 18 22  1  0     0  0
 19 22  2  0     0  0
 19 25  1  0     0  0
 20 27  2  0     0  0
 20 37  1  0     0  0
 21 23  2  0     0  0
 21 28  1  0     0  0
 22 26  1  0     0  0
 24 29  1  0     0  0
 28 29  2  0     0  0
 30 37  1  0     0  0
 31 39  1  0     0  0
 32 38  1  0     0  0
 34 39  1  0     0  0
 35 40  1  0     0  0
 36 41  1  0     0  0
 38 40  1  0     0  0
 38 41  1  0     0  0
M  END
> <standard_type>
pIC50

> <# Confs.>
25

> <canonical_smiles>
ClC1=CC=CC(NC(CC2=CC(NC3=NC=NC4=C3C=C(OC)C(OCCCN5CCC(CO)CC5)=C4)=NN2)=O)=C1

> <standard_relation>
=

> <Publication_ID>
nan

> <predicted_activity_value>
8.443697499232712

> <actual_activity_value>
8.096910013008056

> <Compound>
23

> <standard_units>
nM

> hash
8647914449690908827

$$$$
23_
XXILIB    08252103423D 0   0.00000     0.00000

 41 45  0     1  0            999 V2000
  -14.0209   -3.9805    1.8614 Cl  0  0  0  0  0  1           0  0  0
    1.3659    0.0000    0.0000 O   0  0  0  0  0  2           0  0  0
   -0.1962   -0.0175    2.4379 O   0  0  0  0  0  2           0  0  0
  -11.2533    0.0396    1.8717 O   0  0  0  0  0  2           0  0  0
   10.4526   -2.3158   -0.9623 O   0  0  0  0  0  2           0  0  0
   -8.1434    1.3908    0.7353 N   0  0  0  0  0  3           0  0  0
   -7.0026    1.0931    0.0955 N   0  0  0  0  0  3           0  0  0
   -4.7869   -0.0279   -1.5260 N   0  0  0  0  0  3           0  0  0
   -2.6131    0.0479   -2.5368 N   0  0  0  0  0  3           0  0  0
   -5.0558   -0.1440    0.8413 N   0  0  0  0  0  3           0  0  0
  -10.1155   -1.0684    3.5700 N   0  0  0  0  0  3           0  0  0
    5.3609   -2.8086   -0.1017 N   0  0  1  0  0  3           0  0  0
  -12.6675   -3.6939    2.8886 C   0  0  0  0  0  4           0  0  0
    0.0000    0.0000    0.0000 C   0  0  0  0  0  4           0  0  0
   -0.7341    0.0000    1.1817 C   0  0  0  0  0  4           0  0  0
   -3.9535    0.0332   -2.5741 C   0  0  0  0  0  4           0  0  0
   -6.2951    0.3922    0.9947 C   0  0  0  0  0  4           0  0  0
   -4.2166   -0.0931   -0.2975 C   0  0  0  0  0  4           0  0  0
   -2.0464    0.0105   -1.3239 C   0  0  0  0  0  4           0  0  0
   -8.2077    0.9153    2.0139 C   0  0  0  0  0  4           0  0  0
  -10.8640   -2.2592    3.6231 C   0  0  0  0  0  4           0  0  0
   -2.8079   -0.0499   -0.1383 C   0  0  0  0  0  4           0  0  0
  -11.9628   -2.4918    2.7863 C   0  0  0  0  0  4           0  0  0
  -12.2886   -4.6652    3.8147 C   0  0  0  0  0  4           0  0  0
   -0.6578    0.0295   -1.2337 C   0  0  0  0  0  4           0  0  0
   -2.1277   -0.0537    1.1074 C   0  0  0  0  0  4           0  0  0
   -7.0169    0.2531    2.2095 C   0  0  0  0  0  4           0  0  0
  -10.4838   -3.2350    4.5527 C   0  0  0  0  0  4           0  0  0
  -11.1953   -4.4322    4.6470 C   0  0  0  0  0  4           0  0  0
  -10.3578   -0.0079    2.7144 C   0  0  0  0  0  4           0  0  0
    1.9792   -1.1167    0.6447 C   0  0  0  0  0  4           0  0  0
    9.5444   -3.4068   -1.0458 C   0  0  0  0  0  4           0  0  0
    0.0602    1.2637    3.0074 C   0  0  0  0  0  4           0  0  0
    4.0820   -2.5797    0.5764 C   0  0  0  0  0  4           0  0  0
    6.2417   -1.6329   -0.0087 C   0  0  0  0  0  4           0  0  0
    6.0213   -3.9986    0.4573 C   0  0  0  0  0  4           0  0  0
   -9.3801    1.1303    2.8968 C   0  0  0  0  0  4           0  0  0
    8.2845   -3.1139   -0.2411 C   0  0  1  0  0  4           0  0  0
    3.3182   -1.3979   -0.0252 C   0  0  0  0  0  4           0  0  0
    7.5605   -1.8612   -0.7530 C   0  0  0  0  0  4           0  0  0
    7.3273   -4.3081   -0.2759 C   0  0  0  0  0  4           0  0  0
  1 13  1  0     0  0
  2 14  1  0     0  0
  2 31  1  0     0  0
  3 15  1  0     0  0
  3 33  1  0     0  0
  4 30  2  0     0  0
  5 32  1  0     0  0
  6  7  1  0     0  0
  6 20  1  0     0  0
  7 17  2  0     0  0
  8 16  1  0     0  0
  8 18  2  0     0  0
  9 16  2  0     0  0
  9 19  1  0     0  0
 10 17  1  0     0  0
 10 18  1  0     0  0
 11 21  1  0     0  0
 11 30  1  0     0  0
 12 34  1  0     0  0
 12 35  1  0     0  0
 12 36  1  0     0  0
 13 23  1  0     0  0
 13 24  2  0     0  0
 14 15  1  0     0  0
 14 25  2  0     0  0
 15 26  2  0     0  0
 17 27  1  0     0  0
 18 22  1  0     0  0
 19 22  2  0     0  0
 19 25  1  0     0  0
 20 27  2  0     0  0
 20 37  1  0     0  0
 21 23  2  0     0  0
 21 28  1  0     0  0
 22 26  1  0     0  0
 24 29  1  0     0  0
 28 29  2  0     0  0
 30 37  1  0     0  0
 31 39  1  0     0  0
 32 38  1  0     0  0
 34 39  1  0     0  0
 35 40  1  0     0  0
 36 41  1  0     0  0
 38 40  1  0     0  0
 38 41  1  0     0  0
M  END
> <standard_type>
pIC50

> <# Confs.>
25

> <canonical_smiles>
ClC1=CC=CC(NC(CC2=CC(NC3=NC=NC4=C3C=C(OC)C(OCCCN5CCC(CO)CC5)=C4)=NN2)=O)=C1

> <standard_relation>
=

> <Publication_ID>
nan

> <predicted_activity_value>
8.443697499232712

> <actual_activity_value>
8.096910013008056

> <Compound>
23

> <standard_units>
nM

> hash
8647914449690908827

$$$$
23_
XXILIB    08252103423D 0   0.00000     0.00000

 41 45  0     1  0            999 V2000
   -8.4895    7.1893    6.2472 Cl  0  0  0  0  0  1           0  0  0
    1.3659    0.0000   -0.0000 O   0  0  0  0  0  2           0  0  0
   -0.1962   -0.0175    2.4379 O   0  0  0  0  0  2           0  0  0
   -9.0635    3.4978    3.1064 O   0  0  0  0  0  2           0  0  0
    1.7326   -8.2920   -1.6308 O   0  0  0  0  0  2           0  0  0
   -8.1434    1.3908    0.7353 N   0  0  0  0  0  3           0  0  0
   -7.0026    1.0931    0.0955 N   0  0  0  0  0  3           0  0  0
   -4.7869   -0.0279   -1.5260 N   0  0  0  0  0  3           0  0  0
   -2.6131    0.0479   -2.5368 N   0  0  0  0  0  3           0  0  0
   -5.0558   -0.1440    0.8413 N   0  0  0  0  0  3           0  0  0
   -9.1965    2.2189    5.0438 N   0  0  0  0  0  3           0  0  0
    3.3218   -3.8291    0.4825 N   0  0  1  0  0  3           0  0  0
   -8.7127    5.5339    6.6707 C   0  0  0  0  0  4           0  0  0
    0.0000    0.0000    0.0000 C   0  0  0  0  0  4           0  0  0
   -0.7341    0.0000    1.1817 C   0  0  0  0  0  4           0  0  0
   -3.9535    0.0332   -2.5741 C   0  0  0  0  0  4           0  0  0
   -6.2951    0.3922    0.9947 C   0  0  0  0  0  4           0  0  0
   -4.2166   -0.0931   -0.2975 C   0  0  0  0  0  4           0  0  0
   -2.0464    0.0105   -1.3239 C   0  0  0  0  0  4           0  0  0
   -8.2077    0.9153    2.0139 C   0  0  0  0  0  4           0  0  0
   -9.0421    3.2306    6.0101 C   0  0  0  0  0  4           0  0  0
   -2.8079   -0.0499   -0.1383 C   0  0  0  0  0  4           0  0  0
   -8.8627    4.5760    5.6646 C   0  0  0  0  0  4           0  0  0
   -8.7401    5.1653    8.0153 C   0  0  0  0  0  4           0  0  0
   -0.6578    0.0295   -1.2337 C   0  0  0  0  0  4           0  0  0
   -2.1277   -0.0537    1.1074 C   0  0  0  0  0  4           0  0  0
   -7.0169    0.2531    2.2095 C   0  0  0  0  0  4           0  0  0
   -9.0698    2.8610    7.3604 C   0  0  0  0  0  4           0  0  0
   -8.9183    3.8261    8.3574 C   0  0  0  0  0  4           0  0  0
   -9.1915    2.4132    3.6734 C   0  0  0  0  0  4           0  0  0
    1.9792   -1.1167    0.6447 C   0  0  0  0  0  4           0  0  0
    2.0262   -7.8862   -0.2999 C   0  0  0  0  0  4           0  0  0
    0.0602    1.2637    3.0074 C   0  0  0  0  0  4           0  0  0
    4.0820   -2.5797    0.5764 C   0  0  0  0  0  4           0  0  0
    3.0207   -4.1765   -0.9158 C   0  0  0  0  0  4           0  0  0
    4.0596   -4.9181    1.1416 C   0  0  0  0  0  4           0  0  0
   -9.3801    1.1303    2.8968 C   0  0  0  0  0  4           0  0  0
    2.8907   -6.6319   -0.3039 C   0  0  1  0  0  4           0  0  0
    3.3182   -1.3979   -0.0252 C   0  0  0  0  0  4           0  0  0
    2.1914   -5.4608   -1.0074 C   0  0  0  0  0  4           0  0  0
    3.2620   -6.2230    1.1239 C   0  0  0  0  0  4           0  0  0
  1 13  1  0     0  0
  2 14  1  0     0  0
  2 31  1  0     0  0
  3 15  1  0     0  0
  3 33  1  0     0  0
  4 30  2  0     0  0
  5 32  1  0     0  0
  6  7  1  0     0  0
  6 20  1  0     0  0
  7 17  2  0     0  0
  8 16  1  0     0  0
  8 18  2  0     0  0
  9 16  2  0     0  0
  9 19  1  0     0  0
 10 17  1  0     0  0
 10 18  1  0     0  0
 11 21  1  0     0  0
 11 30  1  0     0  0
 12 34  1  0     0  0
 12 35  1  0     0  0
 12 36  1  0     0  0
 13 23  1  0     0  0
 13 24  2  0     0  0
 14 15  1  0     0  0
 14 25  2  0     0  0
 15 26  2  0     0  0
 17 27  1  0     0  0
 18 22  1  0     0  0
 19 22  2  0     0  0
 19 25  1  0     0  0
 20 27  2  0     0  0
 20 37  1  0     0  0
 21 23  2  0     0  0
 21 28  1  0     0  0
 22 26  1  0     0  0
 24 29  1  0     0  0
 28 29  2  0     0  0
 30 37  1  0     0  0
 31 39  1  0     0  0
 32 38  1  0     0  0
 34 39  1  0     0  0
 35 40  1  0     0  0
 36 41  1  0     0  0
 38 40  1  0     0  0
 38 41  1  0     0  0
M  END
> <standard_type>
pIC50

> <# Confs.>
25

> <canonical_smiles>
ClC1=CC=CC(NC(CC2=CC(NC3=NC=NC4=C3C=C(OC)C(OCCCN5CCC(CO)CC5)=C4)=NN2)=O)=C1

> <standard_relation>
=

> <Publication_ID>
nan

> <predicted_activity_value>
8.443697499232712

> <actual_activity_value>
8.096910013008056

> <Compound>
23

> <standard_units>
nM

> hash
8647914449690908827

$$$$
23_
XXILIB    08252103423D 0   0.00000     0.00000

 41 45  0     1  0            999 V2000
  -13.9671    3.7143    2.1883 Cl  0  0  0  0  0  1           0  0  0
    1.3659   -0.0000    0.0000 O   0  0  0  0  0  2           0  0  0
   -0.1962   -0.0175    2.4379 O   0  0  0  0  0  2           0  0  0
  -11.2620   -0.3328    1.8363 O   0  0  0  0  0  2           0  0  0
    8.9847   -0.8326   -4.5187 O   0  0  0  0  0  2           0  0  0
   -8.1666   -1.6128    0.5838 N   0  0  0  0  0  3           0  0  0
   -7.0189   -1.2740   -0.0225 N   0  0  0  0  0  3           0  0  0
   -4.7869   -0.0279   -1.5260 N   0  0  0  0  0  3           0  0  0
   -2.6131    0.0479   -2.5368 N   0  0  0  0  0  3           0  0  0
   -5.0558   -0.1440    0.8413 N   0  0  0  0  0  3           0  0  0
  -10.1330    0.5821    3.6515 N   0  0  0  0  0  3           0  0  0
    5.5766   -0.5514   -0.6181 N   0  0  1  0  0  3           0  0  0
  -12.6408    3.2993    3.2071 C   0  0  0  0  0  4           0  0  0
   -0.0000    0.0000    0.0000 C   0  0  0  0  0  4           0  0  0
   -0.7341    0.0000    1.1817 C   0  0  0  0  0  4           0  0  0
   -3.9535    0.0332   -2.5741 C   0  0  0  0  0  4           0  0  0
   -6.3025   -0.6758    0.9415 C   0  0  0  0  0  4           0  0  0
   -4.2166   -0.0931   -0.2975 C   0  0  0  0  0  4           0  0  0
   -2.0464    0.0105   -1.3239 C   0  0  0  0  0  4           0  0  0
   -8.2286   -1.2585    1.9012 C   0  0  0  0  0  4           0  0  0
  -10.8703    1.7692    3.8191 C   0  0  0  0  0  4           0  0  0
   -2.8079   -0.0499   -0.1383 C   0  0  0  0  0  4           0  0  0
  -11.9494    2.1045    2.9914 C   0  0  0  0  0  4           0  0  0
  -12.2687    4.1618    4.2378 C   0  0  0  0  0  4           0  0  0
   -0.6578    0.0295   -1.2337 C   0  0  0  0  0  4           0  0  0
   -2.1277   -0.0537    1.1074 C   0  0  0  0  0  4           0  0  0
   -7.0223   -0.6500    2.1652 C   0  0  0  0  0  4           0  0  0
  -10.4973    2.6355    4.8541 C   0  0  0  0  0  4           0  0  0
  -11.1946    3.8270    5.0602 C   0  0  0  0  0  4           0  0  0
  -10.3685   -0.3765    2.6814 C   0  0  0  0  0  4           0  0  0
    1.9792   -1.1167    0.6447 C   0  0  0  0  0  4           0  0  0
    9.1025   -0.5414   -3.1319 C   0  0  0  0  0  4           0  0  0
    0.0602    1.2637    3.0074 C   0  0  0  0  0  4           0  0  0
    4.3065   -0.2313    0.0392 C   0  0  0  0  0  4           0  0  0
    5.3839   -0.8760   -2.0408 C   0  0  0  0  0  4           0  0  0
    6.5198    0.5671   -0.4630 C   0  0  0  0  0  4           0  0  0
   -9.4064   -1.5397    2.7580 C   0  0  0  0  0  4           0  0  0
    7.7517   -0.1356   -2.5561 C   0  0  1  0  0  4           0  0  0
    3.3182   -1.3979   -0.0252 C   0  0  0  0  0  4           0  0  0
    6.7078   -1.2494   -2.7141 C   0  0  0  0  0  4           0  0  0
    7.8813    0.2382   -1.0772 C   0  0  0  0  0  4           0  0  0
  1 13  1  0     0  0
  2 14  1  0     0  0
  2 31  1  0     0  0
  3 15  1  0     0  0
  3 33  1  0     0  0
  4 30  2  0     0  0
  5 32  1  0     0  0
  6  7  1  0     0  0
  6 20  1  0     0  0
  7 17  2  0     0  0
  8 16  1  0     0  0
  8 18  2  0     0  0
  9 16  2  0     0  0
  9 19  1  0     0  0
 10 17  1  0     0  0
 10 18  1  0     0  0
 11 21  1  0     0  0
 11 30  1  0     0  0
 12 34  1  0     0  0
 12 35  1  0     0  0
 12 36  1  0     0  0
 13 23  1  0     0  0
 13 24  2  0     0  0
 14 15  1  0     0  0
 14 25  2  0     0  0
 15 26  2  0     0  0
 17 27  1  0     0  0
 18 22  1  0     0  0
 19 22  2  0     0  0
 19 25  1  0     0  0
 20 27  2  0     0  0
 20 37  1  0     0  0
 21 23  2  0     0  0
 21 28  1  0     0  0
 22 26  1  0     0  0
 24 29  1  0     0  0
 28 29  2  0     0  0
 30 37  1  0     0  0
 31 39  1  0     0  0
 32 38  1  0     0  0
 34 39  1  0     0  0
 35 40  1  0     0  0
 36 41  1  0     0  0
 38 40  1  0     0  0
 38 41  1  0     0  0
M  END
> <standard_type>
pIC50

> <# Confs.>
25

> <canonical_smiles>
ClC1=CC=CC(NC(CC2=CC(NC3=NC=NC4=C3C=C(OC)C(OCCCN5CCC(CO)CC5)=C4)=NN2)=O)=C1

> <standard_relation>
=

> <Publication_ID>
nan

> <predicted_activity_value>
8.443697499232712

> <actual_activity_value>
8.096910013008056

> <Compound>
23

> <standard_units>
nM

> hash
8647914449690908827

$$$$
23_
XXILIB    08252103423D 0   0.00000     0.00000

 41 45  0     1  0            999 V2000
   -8.6270    7.1905    6.2786 Cl  0  0  0  0  0  1           0  0  0
    1.3659    0.0000    0.0000 O   0  0  0  0  0  2           0  0  0
   -0.1962   -0.0175    2.4379 O   0  0  0  0  0  2           0  0  0
   -9.5892    3.4941    3.2402 O   0  0  0  0  0  2           0  0  0
   -0.4865   -8.2329    0.5823 O   0  0  0  0  0  2           0  0  0
   -8.1434    1.3908    0.7353 N   0  0  0  0  0  3           0  0  0
   -7.0026    1.0931    0.0955 N   0  0  0  0  0  3           0  0  0
   -4.7869   -0.0279   -1.5260 N   0  0  0  0  0  3           0  0  0
   -2.6131    0.0479   -2.5368 N   0  0  0  0  0  3           0  0  0
   -5.0558   -0.1440    0.8413 N   0  0  0  0  0  3           0  0  0
   -8.5554    2.2194    4.8872 N   0  0  0  0  0  3           0  0  0
    2.6172   -4.0787    0.7205 N   0  0  1  0  0  3           0  0  0
   -8.2356    5.5350    6.5531 C   0  0  0  0  0  4           0  0  0
    0.0000    0.0000    0.0000 C   0  0  0  0  0  4           0  0  0
   -0.7341    0.0000    1.1817 C   0  0  0  0  0  4           0  0  0
   -3.9535    0.0332   -2.5741 C   0  0  0  0  0  4           0  0  0
   -6.2951    0.3922    0.9947 C   0  0  0  0  0  4           0  0  0
   -4.2166   -0.0931   -0.2975 C   0  0  0  0  0  4           0  0  0
   -2.0464    0.0105   -1.3239 C   0  0  0  0  0  4           0  0  0
   -8.2077    0.9153    2.0139 C   0  0  0  0  0  4           0  0  0
   -8.2485    3.2312    5.8164 C   0  0  0  0  0  4           0  0  0
   -2.8079   -0.0499   -0.1383 C   0  0  0  0  0  4           0  0  0
   -8.5689    4.5762    5.5929 C   0  0  0  0  0  4           0  0  0
   -7.5877    5.1674    7.7320 C   0  0  0  0  0  4           0  0  0
   -0.6578    0.0295   -1.2337 C   0  0  0  0  0  4           0  0  0
   -2.1277   -0.0537    1.1074 C   0  0  0  0  0  4           0  0  0
   -7.0169    0.2531    2.2095 C   0  0  0  0  0  4           0  0  0
   -7.5982    2.8626    7.0004 C   0  0  0  0  0  4           0  0  0
   -7.2692    3.8287    7.9527 C   0  0  0  0  0  4           0  0  0
   -9.1915    2.4132    3.6734 C   0  0  0  0  0  4           0  0  0
    1.9792   -1.1167    0.6447 C   0  0  0  0  0  4           0  0  0
    0.4034   -7.7049    1.5576 C   0  0  0  0  0  4           0  0  0
    0.0602    1.2637    3.0074 C   0  0  0  0  0  4           0  0  0
    3.5593   -3.0844    0.1994 C   0  0  0  0  0  4           0  0  0
    1.7030   -4.5606   -0.3277 C   0  0  0  0  0  4           0  0  0
    3.3523   -5.2005    1.3253 C   0  0  0  0  0  4           0  0  0
   -9.3801    1.1303    2.8968 C   0  0  0  0  0  4           0  0  0
    1.3985   -6.7506    0.9098 C   0  0  1  0  0  4           0  0  0
    2.8417   -1.8581   -0.3689 C   0  0  0  0  0  4           0  0  0
    0.6940   -5.5689    0.2297 C   0  0  0  0  0  4           0  0  0
    2.3986   -6.2244    1.9426 C   0  0  0  0  0  4           0  0  0
  1 13  1  0     0  0
  2 14  1  0     0  0
  2 31  1  0     0  0
  3 15  1  0     0  0
  3 33  1  0     0  0
  4 30  2  0     0  0
  5 32  1  0     0  0
  6  7  1  0     0  0
  6 20  1  0     0  0
  7 17  2  0     0  0
  8 16  1  0     0  0
  8 18  2  0     0  0
  9 16  2  0     0  0
  9 19  1  0     0  0
 10 17  1  0     0  0
 10 18  1  0     0  0
 11 21  1  0     0  0
 11 30  1  0     0  0
 12 34  1  0     0  0
 12 35  1  0     0  0
 12 36  1  0     0  0
 13 23  1  0     0  0
 13 24  2  0     0  0
 14 15  1  0     0  0
 14 25  2  0     0  0
 15 26  2  0     0  0
 17 27  1  0     0  0
 18 22  1  0     0  0
 19 22  2  0     0  0
 19 25  1  0     0  0
 20 27  2  0     0  0
 20 37  1  0     0  0
 21 23  2  0     0  0
 21 28  1  0     0  0
 22 26  1  0     0  0
 24 29  1  0     0  0
 28 29  2  0     0  0
 30 37  1  0     0  0
 31 39  1  0     0  0
 32 38  1  0     0  0
 34 39  1  0     0  0
 35 40  1  0     0  0
 36 41  1  0     0  0
 38 40  1  0     0  0
 38 41  1  0     0  0
M  END
> <standard_type>
pIC50

> <# Confs.>
25

> <canonical_smiles>
ClC1=CC=CC(NC(CC2=CC(NC3=NC=NC4=C3C=C(OC)C(OCCCN5CCC(CO)CC5)=C4)=NN2)=O)=C1

> <standard_relation>
=

> <Publication_ID>
nan

> <predicted_activity_value>
8.443697499232712

> <actual_activity_value>
8.096910013008056

> <Compound>
23

> <standard_units>
nM

> hash
8647914449690908827

$$$$
23_
XXILIB    08252103423D 0   0.00000     0.00000

 41 45  0     1  0            999 V2000
   -8.7566   -7.8980    5.5651 Cl  0  0  0  0  0  1           0  0  0
    1.3659    0.0000    0.0000 O   0  0  0  0  0  2           0  0  0
   -0.1962   -0.0175    2.4379 O   0  0  0  0  0  2           0  0  0
   -9.6473   -3.9223    2.8777 O   0  0  0  0  0  2           0  0  0
   10.4526   -2.3158   -0.9623 O   0  0  0  0  0  2           0  0  0
   -8.1666   -1.6128    0.5838 N   0  0  0  0  0  3           0  0  0
   -7.0189   -1.2740   -0.0225 N   0  0  0  0  0  3           0  0  0
   -4.7869   -0.0279   -1.5260 N   0  0  0  0  0  3           0  0  0
   -2.6131    0.0479   -2.5368 N   0  0  0  0  0  3           0  0  0
   -5.0558   -0.1440    0.8413 N   0  0  0  0  0  3           0  0  0
   -8.5763   -2.8248    4.6256 N   0  0  0  0  0  3           0  0  0
    5.3609   -2.8086   -0.1017 N   0  0  1  0  0  3           0  0  0
   -8.3157   -6.2845    5.9793 C   0  0  0  0  0  4           0  0  0
   -0.0000    0.0000    0.0000 C   0  0  0  0  0  4           0  0  0
   -0.7341    0.0000    1.1817 C   0  0  0  0  0  4           0  0  0
   -3.9535    0.0332   -2.5741 C   0  0  0  0  0  4           0  0  0
   -6.3025   -0.6758    0.9415 C   0  0  0  0  0  4           0  0  0
   -4.2166   -0.0931   -0.2975 C   0  0  0  0  0  4           0  0  0
   -2.0464    0.0105   -1.3239 C   0  0  0  0  0  4           0  0  0
   -8.2286   -1.2585    1.9012 C   0  0  0  0  0  4           0  0  0
   -8.2794   -3.9240    5.4530 C   0  0  0  0  0  4           0  0  0
   -2.8079   -0.0499   -0.1383 C   0  0  0  0  0  4           0  0  0
   -8.6366   -5.2352    5.1143 C   0  0  0  0  0  4           0  0  0
   -7.6431   -6.0408    7.1762 C   0  0  0  0  0  4           0  0  0
   -0.6578    0.0295   -1.2337 C   0  0  0  0  0  4           0  0  0
   -2.1277   -0.0537    1.1074 C   0  0  0  0  0  4           0  0  0
   -7.0223   -0.6500    2.1652 C   0  0  0  0  0  4           0  0  0
   -7.6037   -3.6798    6.6549 C   0  0  0  0  0  4           0  0  0
   -7.2886   -4.7355    7.5121 C   0  0  0  0  0  4           0  0  0
   -9.2369   -2.8922    3.4112 C   0  0  0  0  0  4           0  0  0
    1.9792   -1.1167    0.6447 C   0  0  0  0  0  4           0  0  0
    9.5444   -3.4068   -1.0458 C   0  0  0  0  0  4           0  0  0
    0.0602    1.2637    3.0074 C   0  0  0  0  0  4           0  0  0
    4.0820   -2.5797    0.5764 C   0  0  0  0  0  4           0  0  0
    6.2417   -1.6329   -0.0087 C   0  0  0  0  0  4           0  0  0
    6.0213   -3.9986    0.4573 C   0  0  0  0  0  4           0  0  0
   -9.4064   -1.5397    2.7580 C   0  0  0  0  0  4           0  0  0
    8.2845   -3.1139   -0.2411 C   0  0  1  0  0  4           0  0  0
    3.3182   -1.3979   -0.0252 C   0  0  0  0  0  4           0  0  0
    7.5605   -1.8612   -0.7530 C   0  0  0  0  0  4           0  0  0
    7.3273   -4.3081   -0.2759 C   0  0  0  0  0  4           0  0  0
  1 13  1  0     0  0
  2 14  1  0     0  0
  2 31  1  0     0  0
  3 15  1  0     0  0
  3 33  1  0     0  0
  4 30  2  0     0  0
  5 32  1  0     0  0
  6  7  1  0     0  0
  6 20  1  0     0  0
  7 17  2  0     0  0
  8 16  1  0     0  0
  8 18  2  0     0  0
  9 16  2  0     0  0
  9 19  1  0     0  0
 10 17  1  0     0  0
 10 18  1  0     0  0
 11 21  1  0     0  0
 11 30  1  0     0  0
 12 34  1  0     0  0
 12 35  1  0     0  0
 12 36  1  0     0  0
 13 23  1  0     0  0
 13 24  2  0     0  0
 14 15  1  0     0  0
 14 25  2  0     0  0
 15 26  2  0     0  0
 17 27  1  0     0  0
 18 22  1  0     0  0
 19 22  2  0     0  0
 19 25  1  0     0  0
 20 27  2  0     0  0
 20 37  1  0     0  0
 21 23  2  0     0  0
 21 28  1  0     0  0
 22 26  1  0     0  0
 24 29  1  0     0  0
 28 29  2  0     0  0
 30 37  1  0     0  0
 31 39  1  0     0  0
 32 38  1  0     0  0
 34 39  1  0     0  0
 35 40  1  0     0  0
 36 41  1  0     0  0
 38 40  1  0     0  0
 38 41  1  0     0  0
M  END
> <standard_type>
pIC50

> <# Confs.>
25

> <canonical_smiles>
ClC1=CC=CC(NC(CC2=CC(NC3=NC=NC4=C3C=C(OC)C(OCCCN5CCC(CO)CC5)=C4)=NN2)=O)=C1

> <standard_relation>
=

> <Publication_ID>
nan

> <predicted_activity_value>
8.443697499232712

> <actual_activity_value>
8.096910013008056

> <Compound>
23

> <standard_units>
nM

> hash
8647914449690908827

$$$$
23_
XXILIB    08252103423D 0   0.00000     0.00000

 41 45  0     1  0            999 V2000
   -8.6270    7.1905    6.2786 Cl  0  0  0  0  0  1           0  0  0
    1.3659   -0.0000    0.0000 O   0  0  0  0  0  2           0  0  0
   -0.1962   -0.0175    2.4379 O   0  0  0  0  0  2           0  0  0
   -9.5892    3.4941    3.2402 O   0  0  0  0  0  2           0  0  0
   10.0273    1.7721   -0.9989 O   0  0  0  0  0  2           0  0  0
   -8.1434    1.3908    0.7353 N   0  0  0  0  0  3           0  0  0
   -7.0026    1.0931    0.0955 N   0  0  0  0  0  3           0  0  0
   -4.7869   -0.0279   -1.5260 N   0  0  0  0  0  3           0  0  0
   -2.6131    0.0479   -2.5368 N   0  0  0  0  0  3           0  0  0
   -5.0558   -0.1440    0.8413 N   0  0  0  0  0  3           0  0  0
   -8.5554    2.2194    4.8872 N   0  0  0  0  0  3           0  0  0
    5.4915    0.4004    1.1115 N   0  0  1  0  0  3           0  0  0
   -8.2356    5.5350    6.5531 C   0  0  0  0  0  4           0  0  0
    0.0000    0.0000    0.0000 C   0  0  0  0  0  4           0  0  0
   -0.7341    0.0000    1.1817 C   0  0  0  0  0  4           0  0  0
   -3.9535    0.0332   -2.5741 C   0  0  0  0  0  4           0  0  0
   -6.2951    0.3922    0.9947 C   0  0  0  0  0  4           0  0  0
   -4.2166   -0.0931   -0.2975 C   0  0  0  0  0  4           0  0  0
   -2.0464    0.0105   -1.3239 C   0  0  0  0  0  4           0  0  0
   -8.2077    0.9153    2.0139 C   0  0  0  0  0  4           0  0  0
   -8.2485    3.2312    5.8164 C   0  0  0  0  0  4           0  0  0
   -2.8079   -0.0499   -0.1383 C   0  0  0  0  0  4           0  0  0
   -8.5689    4.5762    5.5929 C   0  0  0  0  0  4           0  0  0
   -7.5877    5.1674    7.7320 C   0  0  0  0  0  4           0  0  0
   -0.6578    0.0295   -1.2337 C   0  0  0  0  0  4           0  0  0
   -2.1277   -0.0537    1.1074 C   0  0  0  0  0  4           0  0  0
   -7.0169    0.2531    2.2095 C   0  0  0  0  0  4           0  0  0
   -7.5982    2.8626    7.0004 C   0  0  0  0  0  4           0  0  0
   -7.2692    3.8287    7.9527 C   0  0  0  0  0  4           0  0  0
   -9.1915    2.4132    3.6734 C   0  0  0  0  0  4           0  0  0
    1.9792   -1.1167    0.6447 C   0  0  0  0  0  4           0  0  0
    9.5471    1.7060    0.3379 C   0  0  0  0  0  4           0  0  0
    0.0602    1.2637    3.0074 C   0  0  0  0  0  4           0  0  0
    4.0335    0.3020    1.2225 C   0  0  0  0  0  4           0  0  0
    5.9271    0.4307   -0.2942 C   0  0  0  0  0  4           0  0  0
    5.9721    1.5906    1.8306 C   0  0  0  0  0  4           0  0  0
   -9.3801    1.1303    2.8968 C   0  0  0  0  0  4           0  0  0
    8.0239    1.6957    0.3568 C   0  0  1  0  0  4           0  0  0
    3.4927   -0.9657    0.5575 C   0  0  0  0  0  4           0  0  0
    7.4533    0.4925   -0.4061 C   0  0  0  0  0  4           0  0  0
    7.4981    1.6858    1.7946 C   0  0  0  0  0  4           0  0  0
  1 13  1  0     0  0
  2 14  1  0     0  0
  2 31  1  0     0  0
  3 15  1  0     0  0
  3 33  1  0     0  0
  4 30  2  0     0  0
  5 32  1  0     0  0
  6  7  1  0     0  0
  6 20  1  0     0  0
  7 17  2  0     0  0
  8 16  1  0     0  0
  8 18  2  0     0  0
  9 16  2  0     0  0
  9 19  1  0     0  0
 10 17  1  0     0  0
 10 18  1  0     0  0
 11 21  1  0     0  0
 11 30  1  0     0  0
 12 34  1  0     0  0
 12 35  1  0     0  0
 12 36  1  0     0  0
 13 23  1  0     0  0
 13 24  2  0     0  0
 14 15  1  0     0  0
 14 25  2  0     0  0
 15 26  2  0     0  0
 17 27  1  0     0  0
 18 22  1  0     0  0
 19 22  2  0     0  0
 19 25  1  0     0  0
 20 27  2  0     0  0
 20 37  1  0     0  0
 21 23  2  0     0  0
 21 28  1  0     0  0
 22 26  1  0     0  0
 24 29  1  0     0  0
 28 29  2  0     0  0
 30 37  1  0     0  0
 31 39  1  0     0  0
 32 38  1  0     0  0
 34 39  1  0     0  0
 35 40  1  0     0  0
 36 41  1  0     0  0
 38 40  1  0     0  0
 38 41  1  0     0  0
M  END
> <standard_type>
pIC50

> <# Confs.>
25

> <canonical_smiles>
ClC1=CC=CC(NC(CC2=CC(NC3=NC=NC4=C3C=C(OC)C(OCCCN5CCC(CO)CC5)=C4)=NN2)=O)=C1

> <standard_relation>
=

> <Publication_ID>
nan

> <predicted_activity_value>
8.443697499232712

> <actual_activity_value>
8.096910013008056

> <Compound>
23

> <standard_units>
nM

> hash
8647914449690908827

$$$$
23_
XXILIB    08252103423D 0   0.00000     0.00000

 41 45  0     1  0            999 V2000
   -8.7566   -7.8980    5.5651 Cl  0  0  0  0  0  1           0  0  0
    1.3659   -0.0000   -0.0000 O   0  0  0  0  0  2           0  0  0
   -0.1962   -0.0175    2.4379 O   0  0  0  0  0  2           0  0  0
   -9.6473   -3.9223    2.8777 O   0  0  0  0  0  2           0  0  0
    4.5330    1.3519    7.7261 O   0  0  0  0  0  2           0  0  0
   -8.1666   -1.6128    0.5838 N   0  0  0  0  0  3           0  0  0
   -7.0189   -1.2740   -0.0225 N   0  0  0  0  0  3           0  0  0
   -4.7869   -0.0279   -1.5260 N   0  0  0  0  0  3           0  0  0
   -2.6131    0.0479   -2.5368 N   0  0  0  0  0  3           0  0  0
   -5.0558   -0.1440    0.8413 N   0  0  0  0  0  3           0  0  0
   -8.5763   -2.8248    4.6256 N   0  0  0  0  0  3           0  0  0
    3.9688    2.2259    2.6441 N   0  0  1  0  0  3           0  0  0
   -8.3157   -6.2845    5.9793 C   0  0  0  0  0  4           0  0  0
   -0.0000    0.0000    0.0000 C   0  0  0  0  0  4           0  0  0
   -0.7341    0.0000    1.1817 C   0  0  0  0  0  4           0  0  0
   -3.9535    0.0332   -2.5741 C   0  0  0  0  0  4           0  0  0
   -6.3025   -0.6758    0.9415 C   0  0  0  0  0  4           0  0  0
   -4.2166   -0.0931   -0.2975 C   0  0  0  0  0  4           0  0  0
   -2.0464    0.0105   -1.3239 C   0  0  0  0  0  4           0  0  0
   -8.2286   -1.2585    1.9012 C   0  0  0  0  0  4           0  0  0
   -8.2794   -3.9240    5.4530 C   0  0  0  0  0  4           0  0  0
   -2.8079   -0.0499   -0.1383 C   0  0  0  0  0  4           0  0  0
   -8.6366   -5.2352    5.1143 C   0  0  0  0  0  4           0  0  0
   -7.6431   -6.0408    7.1762 C   0  0  0  0  0  4           0  0  0
   -0.6578    0.0295   -1.2337 C   0  0  0  0  0  4           0  0  0
   -2.1277   -0.0537    1.1074 C   0  0  0  0  0  4           0  0  0
   -7.0223   -0.6500    2.1652 C   0  0  0  0  0  4           0  0  0
   -7.6037   -3.6798    6.6549 C   0  0  0  0  0  4           0  0  0
   -7.2886   -4.7355    7.5121 C   0  0  0  0  0  4           0  0  0
   -9.2369   -2.8922    3.4112 C   0  0  0  0  0  4           0  0  0
    1.9792    1.1167    0.6447 C   0  0  0  0  0  4           0  0  0
    4.1989    2.5019    6.9594 C   0  0  0  0  0  4           0  0  0
    0.0261   -1.3142    2.9862 C   0  0  0  0  0  4           0  0  0
    4.2734    2.1056    1.2156 C   0  0  0  0  0  4           0  0  0
    4.3051    0.9936    3.3756 C   0  0  0  0  0  4           0  0  0
    4.6802    3.3801    3.2152 C   0  0  0  0  0  4           0  0  0
   -9.4064   -1.5397    2.7580 C   0  0  0  0  0  4           0  0  0
    4.6308    2.3197    5.5099 C   0  0  1  0  0  4           0  0  0
    3.4927    0.9657    0.5575 C   0  0  0  0  0  4           0  0  0
    3.9476    1.1087    4.8603 C   0  0  0  0  0  4           0  0  0
    4.3295    3.5774    4.6907 C   0  0  0  0  0  4           0  0  0
  1 13  1  0     0  0
  2 14  1  0     0  0
  2 31  1  0     0  0
  3 15  1  0     0  0
  3 33  1  0     0  0
  4 30  2  0     0  0
  5 32  1  0     0  0
  6  7  1  0     0  0
  6 20  1  0     0  0
  7 17  2  0     0  0
  8 16  1  0     0  0
  8 18  2  0     0  0
  9 16  2  0     0  0
  9 19  1  0     0  0
 10 17  1  0     0  0
 10 18  1  0     0  0
 11 21  1  0     0  0
 11 30  1  0     0  0
 12 34  1  0     0  0
 12 35  1  0     0  0
 12 36  1  0     0  0
 13 23  1  0     0  0
 13 24  2  0     0  0
 14 15  1  0     0  0
 14 25  2  0     0  0
 15 26  2  0     0  0
 17 27  1  0     0  0
 18 22  1  0     0  0
 19 22  2  0     0  0
 19 25  1  0     0  0
 20 27  2  0     0  0
 20 37  1  0     0  0
 21 23  2  0     0  0
 21 28  1  0     0  0
 22 26  1  0     0  0
 24 29  1  0     0  0
 28 29  2  0     0  0
 30 37  1  0     0  0
 31 39  1  0     0  0
 32 38  1  0     0  0
 34 39  1  0     0  0
 35 40  1  0     0  0
 36 41  1  0     0  0
 38 40  1  0     0  0
 38 41  1  0     0  0
M  END
> <standard_type>
pIC50

> <# Confs.>
25

> <canonical_smiles>
ClC1=CC=CC(NC(CC2=CC(NC3=NC=NC4=C3C=C(OC)C(OCCCN5CCC(CO)CC5)=C4)=NN2)=O)=C1

> <standard_relation>
=

> <Publication_ID>
nan

> <predicted_activity_value>
8.443697499232712

> <actual_activity_value>
8.096910013008056

> <Compound>
23

> <standard_units>
nM

> hash
8647914449690908827

$$$$
23_
XXILIB    08252103423D 0   0.00000     0.00000

 41 45  0     1  0            999 V2000
  -13.9222   -4.0543    1.7928 Cl  0  0  0  0  0  1           0  0  0
    1.3659    0.0000   -0.0000 O   0  0  0  0  0  2           0  0  0
   -0.1962   -0.0175    2.4379 O   0  0  0  0  0  2           0  0  0
  -10.8691   -0.2504    1.6216 O   0  0  0  0  0  2           0  0  0
    1.7326   -8.2920   -1.6308 O   0  0  0  0  0  2           0  0  0
   -8.1434    1.3908    0.7353 N   0  0  0  0  0  3           0  0  0
   -7.0026    1.0931    0.0955 N   0  0  0  0  0  3           0  0  0
   -4.7869   -0.0279   -1.5260 N   0  0  0  0  0  3           0  0  0
   -2.6131    0.0479   -2.5368 N   0  0  0  0  0  3           0  0  0
   -5.0558   -0.1440    0.8413 N   0  0  0  0  0  3           0  0  0
  -10.5808   -0.7186    3.8809 N   0  0  0  0  0  3           0  0  0
    3.3218   -3.8291    0.4825 N   0  0  1  0  0  3           0  0  0
  -13.0143   -3.4329    3.1190 C   0  0  0  0  0  4           0  0  0
    0.0000    0.0000    0.0000 C   0  0  0  0  0  4           0  0  0
   -0.7341    0.0000    1.1817 C   0  0  0  0  0  4           0  0  0
   -3.9535    0.0332   -2.5741 C   0  0  0  0  0  4           0  0  0
   -6.2951    0.3922    0.9947 C   0  0  0  0  0  4           0  0  0
   -4.2166   -0.0931   -0.2975 C   0  0  0  0  0  4           0  0  0
   -2.0464    0.0105   -1.3239 C   0  0  0  0  0  4           0  0  0
   -8.2077    0.9153    2.0139 C   0  0  0  0  0  4           0  0  0
  -11.4400   -1.8262    4.0079 C   0  0  0  0  0  4           0  0  0
   -2.8079   -0.0499   -0.1383 C   0  0  0  0  0  4           0  0  0
  -12.1760   -2.3314    2.9287 C   0  0  0  0  0  4           0  0  0
  -13.1260   -4.0353    4.3717 C   0  0  0  0  0  4           0  0  0
   -0.6578    0.0295   -1.2337 C   0  0  0  0  0  4           0  0  0
   -2.1277   -0.0537    1.1074 C   0  0  0  0  0  4           0  0  0
   -7.0169    0.2531    2.2095 C   0  0  0  0  0  4           0  0  0
  -11.5523   -2.4315    5.2655 C   0  0  0  0  0  4           0  0  0
  -12.3933   -3.5311    5.4447 C   0  0  0  0  0  4           0  0  0
  -10.3578   -0.0079    2.7144 C   0  0  0  0  0  4           0  0  0
    1.9792   -1.1167    0.6447 C   0  0  0  0  0  4           0  0  0
    2.0262   -7.8862   -0.2999 C   0  0  0  0  0  4           0  0  0
    0.0602    1.2637    3.0074 C   0  0  0  0  0  4           0  0  0
    4.0820   -2.5797    0.5764 C   0  0  0  0  0  4           0  0  0
    3.0207   -4.1765   -0.9158 C   0  0  0  0  0  4           0  0  0
    4.0596   -4.9181    1.1416 C   0  0  0  0  0  4           0  0  0
   -9.3801    1.1303    2.8968 C   0  0  0  0  0  4           0  0  0
    2.8907   -6.6319   -0.3039 C   0  0  1  0  0  4           0  0  0
    3.3182   -1.3979   -0.0252 C   0  0  0  0  0  4           0  0  0
    2.1914   -5.4608   -1.0074 C   0  0  0  0  0  4           0  0  0
    3.2620   -6.2230    1.1239 C   0  0  0  0  0  4           0  0  0
  1 13  1  0     0  0
  2 14  1  0     0  0
  2 31  1  0     0  0
  3 15  1  0     0  0
  3 33  1  0     0  0
  4 30  2  0     0  0
  5 32  1  0     0  0
  6  7  1  0     0  0
  6 20  1  0     0  0
  7 17  2  0     0  0
  8 16  1  0     0  0
  8 18  2  0     0  0
  9 16  2  0     0  0
  9 19  1  0     0  0
 10 17  1  0     0  0
 10 18  1  0     0  0
 11 21  1  0     0  0
 11 30  1  0     0  0
 12 34  1  0     0  0
 12 35  1  0     0  0
 12 36  1  0     0  0
 13 23  1  0     0  0
 13 24  2  0     0  0
 14 15  1  0     0  0
 14 25  2  0     0  0
 15 26  2  0     0  0
 17 27  1  0     0  0
 18 22  1  0     0  0
 19 22  2  0     0  0
 19 25  1  0     0  0
 20 27  2  0     0  0
 20 37  1  0     0  0
 21 23  2  0     0  0
 21 28  1  0     0  0
 22 26  1  0     0  0
 24 29  1  0     0  0
 28 29  2  0     0  0
 30 37  1  0     0  0
 31 39  1  0     0  0
 32 38  1  0     0  0
 34 39  1  0     0  0
 35 40  1  0     0  0
 36 41  1  0     0  0
 38 40  1  0     0  0
 38 41  1  0     0  0
M  END
> <standard_type>
pIC50

> <# Confs.>
25

> <canonical_smiles>
ClC1=CC=CC(NC(CC2=CC(NC3=NC=NC4=C3C=C(OC)C(OCCCN5CCC(CO)CC5)=C4)=NN2)=O)=C1

> <standard_relation>
=

> <Publication_ID>
nan

> <predicted_activity_value>
8.443697499232712

> <actual_activity_value>
8.096910013008056

> <Compound>
23

> <standard_units>
nM

> hash
8647914449690908827

$$$$
39_
XXILIB    08252103423D 0   0.00000     0.00000

 30 33  0     1  0            999 V2000
    1.3765   -0.0000    0.0000 O   0  0  0  0  0  2           0  0  0
    6.3339    0.8059    3.9318 O   0  0  0  0  0  2           0  0  0
    5.2156    2.6330    2.2569 O   0  0  0  0  0  2           0  0  0
   -5.0545    0.0149    1.7399 O   0  0  0  0  0  2           0  0  0
    1.5732   -2.1511    0.9717 N   0  0  0  0  0  3           0  0  0
    3.2945   -2.5586    2.5985 N   0  0  0  0  0  3           0  0  0
   -4.1967    0.0368   -0.4215 N   0  0  0  0  0  3           0  0  0
    2.0135   -0.8769    0.8769 C   0  0  0  0  0  4           0  0  0
    0.0000    0.0000    0.0000 C   0  0  0  0  0  4           0  0  0
    5.2505    0.4677    3.1708 C   0  0  0  0  0  4           0  0  0
    4.6638    1.3835    2.2954 C   0  0  0  0  0  4           0  0  0
    2.2478   -2.9228    1.8355 C   0  0  0  0  0  4           0  0  0
    3.7124   -1.2874    2.4868 C   0  0  0  0  0  4           0  0  0
   -2.7980    0.0291   -0.2468 C   0  0  0  0  0  4           0  0  0
    3.0950   -0.3715    1.6167 C   0  0  0  0  0  4           0  0  0
   -6.5988    0.0440   -0.0201 C   0  0  0  0  0  4           0  0  0
    4.7896   -0.8508    3.2486 C   0  0  0  0  0  4           0  0  0
    3.5776    0.9587    1.5265 C   0  0  0  0  0  4           0  0  0
   -0.8072   -0.0000    1.1418 C   0  0  0  0  0  4           0  0  0
   -0.5986    0.0278   -1.2632 C   0  0  0  0  0  4           0  0  0
   -2.2007    0.0119    1.0184 C   0  0  0  0  0  4           0  0  0
   -1.9895    0.0397   -1.3874 C   0  0  0  0  0  4           0  0  0
   -6.8403    0.6308   -1.2630 C   0  0  0  0  0  4           0  0  0
   -7.6340   -0.5128    0.7318 C   0  0  0  0  0  4           0  0  0
   -8.1419    0.6514   -1.7623 C   0  0  0  0  0  4           0  0  0
   -8.9319   -0.4871    0.2236 C   0  0  0  0  0  4           0  0  0
   -9.1858    0.0934   -1.0209 C   0  0  0  0  0  4           0  0  0
   -5.2187    0.0299    0.5219 C   0  0  0  0  0  4           0  0  0
    6.0311    1.3535    5.2121 C   0  0  0  0  0  4           0  0  0
    4.5950    3.5445    1.3543 C   0  0  0  0  0  4           0  0  0
  1  8  1  0     0  0
  1  9  1  0     0  0
  2 10  1  0     0  0
  2 29  1  0     0  0
  3 11  1  0     0  0
  3 30  1  0     0  0
  4 28  2  0     0  0
  5  8  2  0     0  0
  5 12  1  0     0  0
  6 12  2  0     0  0
  6 13  1  0     0  0
  7 14  1  0     0  0
  7 28  1  0     0  0
  8 15  1  0     0  0
  9 19  2  0     0  0
  9 20  1  0     0  0
 10 11  1  0     0  0
 10 17  2  0     0  0
 11 18  2  0     0  0
 13 15  2  0     0  0
 13 17  1  0     0  0
 14 21  2  0     0  0
 14 22  1  0     0  0
 15 18  1  0     0  0
 16 23  2  0     0  0
 16 24  1  0     0  0
 16 28  1  0     0  0
 19 21  1  0     0  0
 20 22  2  0     0  0
 23 25  1  0     0  0
 24 26  2  0     0  0
 25 27  2  0     0  0
 26 27  1  0     0  0
M  END
> <standard_type>
pIC50

> <# Confs.>
25

> <canonical_smiles>
O=C(NC1=CC=C(OC2=NC=NC3=C2C=C(OC)C(OC)=C3)C=C1)C4=CC=CC=C4

> <standard_relation>
=

> <Publication_ID>
nan

> <predicted_activity_value>
6.275724130399211

> <actual_activity_value>
6.359518563029578

> <Compound>
39

> <standard_units>
nM

> hash
10390496516900650148

$$$$
39_
XXILIB    08252103423D 0   0.00000     0.00000

 30 33  0     1  0            999 V2000
    1.3765    0.0000   -0.0000 O   0  0  0  0  0  2           0  0  0
    6.2896   -0.8251    3.9831 O   0  0  0  0  0  2           0  0  0
    5.1455   -2.6632    2.3381 O   0  0  0  0  0  2           0  0  0
   -5.0545    0.0149    1.7399 O   0  0  0  0  0  2           0  0  0
    1.5732    2.1511    0.9717 N   0  0  0  0  0  3           0  0  0
    3.2839    2.5541    2.6107 N   0  0  0  0  0  3           0  0  0
   -4.1967    0.0368   -0.4215 N   0  0  0  0  0  3           0  0  0
    2.0135    0.8769    0.8769 C   0  0  0  0  0  4           0  0  0
    0.0000    0.0000    0.0000 C   0  0  0  0  0  4           0  0  0
    5.2506   -0.4677    3.1708 C   0  0  0  0  0  4           0  0  0
    4.6388   -1.3943    2.3245 C   0  0  0  0  0  4           0  0  0
    2.2419    2.9203    1.8424 C   0  0  0  0  0  4           0  0  0
    3.7031    1.2834    2.4975 C   0  0  0  0  0  4           0  0  0
   -2.7980    0.0291   -0.2468 C   0  0  0  0  0  4           0  0  0
    3.0898    0.3692    1.6227 C   0  0  0  0  0  4           0  0  0
   -6.5988    0.0440   -0.0201 C   0  0  0  0  0  4           0  0  0
    4.7752    0.8446    3.2653 C   0  0  0  0  0  4           0  0  0
    3.5623   -0.9653    1.5442 C   0  0  0  0  0  4           0  0  0
   -0.8072   -0.0000    1.1418 C   0  0  0  0  0  4           0  0  0
   -0.5986    0.0278   -1.2632 C   0  0  0  0  0  4           0  0  0
   -2.2007    0.0119    1.0184 C   0  0  0  0  0  4           0  0  0
   -1.9895    0.0397   -1.3874 C   0  0  0  0  0  4           0  0  0
   -6.8403    0.6308   -1.2630 C   0  0  0  0  0  4           0  0  0
   -7.6340   -0.5128    0.7318 C   0  0  0  0  0  4           0  0  0
   -8.1419    0.6514   -1.7623 C   0  0  0  0  0  4           0  0  0
   -8.9319   -0.4871    0.2236 C   0  0  0  0  0  4           0  0  0
   -9.1858    0.0934   -1.0209 C   0  0  0  0  0  4           0  0  0
   -5.2187    0.0299    0.5219 C   0  0  0  0  0  4           0  0  0
    7.5867   -0.6819    3.4106 C   0  0  0  0  0  4           0  0  0
    4.5002   -3.5854    1.4640 C   0  0  0  0  0  4           0  0  0
  1  8  1  0     0  0
  1  9  1  0     0  0
  2 10  1  0     0  0
  2 29  1  0     0  0
  3 11  1  0     0  0
  3 30  1  0     0  0
  4 28  2  0     0  0
  5  8  2  0     0  0
  5 12  1  0     0  0
  6 12  2  0     0  0
  6 13  1  0     0  0
  7 14  1  0     0  0
  7 28  1  0     0  0
  8 15  1  0     0  0
  9 19  2  0     0  0
  9 20  1  0     0  0
 10 11  1  0     0  0
 10 17  2  0     0  0
 11 18  2  0     0  0
 13 15  2  0     0  0
 13 17  1  0     0  0
 14 21  2  0     0  0
 14 22  1  0     0  0
 15 18  1  0     0  0
 16 23  2  0     0  0
 16 24  1  0     0  0
 16 28  1  0     0  0
 19 21  1  0     0  0
 20 22  2  0     0  0
 23 25  1  0     0  0
 24 26  2  0     0  0
 25 27  2  0     0  0
 26 27  1  0     0  0
M  END
> <standard_type>
pIC50

> <# Confs.>
25

> <canonical_smiles>
O=C(NC1=CC=C(OC2=NC=NC3=C2C=C(OC)C(OC)=C3)C=C1)C4=CC=CC=C4

> <standard_relation>
=

> <Publication_ID>
nan

> <predicted_activity_value>
6.275724130399211

> <actual_activity_value>
6.359518563029578

> <Compound>
39

> <standard_units>
nM

> hash
10390496516900650148

$$$$
39_
XXILIB    08252103423D 0   0.00000     0.00000

 30 33  0     1  0            999 V2000
    1.3765   -0.0000    0.0000 O   0  0  0  0  0  2           0  0  0
    6.3339    0.8059    3.9318 O   0  0  0  0  0  2           0  0  0
    5.2156    2.6330    2.2569 O   0  0  0  0  0  2           0  0  0
   -5.0545    0.0149    1.7399 O   0  0  0  0  0  2           0  0  0
    1.5732   -2.1511    0.9717 N   0  0  0  0  0  3           0  0  0
    3.2945   -2.5586    2.5985 N   0  0  0  0  0  3           0  0  0
   -4.1967    0.0368   -0.4215 N   0  0  0  0  0  3           0  0  0
    2.0135   -0.8769    0.8769 C   0  0  0  0  0  4           0  0  0
    0.0000    0.0000    0.0000 C   0  0  0  0  0  4           0  0  0
    5.2505    0.4677    3.1708 C   0  0  0  0  0  4           0  0  0
    4.6638    1.3835    2.2954 C   0  0  0  0  0  4           0  0  0
    2.2478   -2.9228    1.8355 C   0  0  0  0  0  4           0  0  0
    3.7124   -1.2874    2.4868 C   0  0  0  0  0  4           0  0  0
   -2.7980    0.0291   -0.2468 C   0  0  0  0  0  4           0  0  0
    3.0950   -0.3715    1.6167 C   0  0  0  0  0  4           0  0  0
   -6.5988    0.0440   -0.0201 C   0  0  0  0  0  4           0  0  0
    4.7896   -0.8508    3.2486 C   0  0  0  0  0  4           0  0  0
    3.5776    0.9587    1.5265 C   0  0  0  0  0  4           0  0  0
   -0.8072   -0.0000    1.1418 C   0  0  0  0  0  4           0  0  0
   -0.5986    0.0278   -1.2632 C   0  0  0  0  0  4           0  0  0
   -2.2007    0.0119    1.0184 C   0  0  0  0  0  4           0  0  0
   -1.9895    0.0397   -1.3874 C   0  0  0  0  0  4           0  0  0
   -7.6327    0.5738    0.7530 C   0  0  0  0  0  4           0  0  0
   -6.8413   -0.4908   -1.2859 C   0  0  0  0  0  4           0  0  0
   -8.9302    0.5737    0.2428 C   0  0  0  0  0  4           0  0  0
   -8.1423   -0.4861   -1.7870 C   0  0  0  0  0  4           0  0  0
   -9.1848    0.0452   -1.0247 C   0  0  0  0  0  4           0  0  0
   -5.2187    0.0299    0.5219 C   0  0  0  0  0  4           0  0  0
    7.6016    0.5595    3.3290 C   0  0  0  0  0  4           0  0  0
    4.5950    3.5445    1.3543 C   0  0  0  0  0  4           0  0  0
  1  8  1  0     0  0
  1  9  1  0     0  0
  2 10  1  0     0  0
  2 29  1  0     0  0
  3 11  1  0     0  0
  3 30  1  0     0  0
  4 28  2  0     0  0
  5  8  2  0     0  0
  5 12  1  0     0  0
  6 12  2  0     0  0
  6 13  1  0     0  0
  7 14  1  0     0  0
  7 28  1  0     0  0
  8 15  1  0     0  0
  9 19  2  0     0  0
  9 20  1  0     0  0
 10 11  1  0     0  0
 10 17  2  0     0  0
 11 18  2  0     0  0
 13 15  2  0     0  0
 13 17  1  0     0  0
 14 21  2  0     0  0
 14 22  1  0     0  0
 15 18  1  0     0  0
 16 23  2  0     0  0
 16 24  1  0     0  0
 16 28  1  0     0  0
 19 21  1  0     0  0
 20 22  2  0     0  0
 23 25  1  0     0  0
 24 26  2  0     0  0
 25 27  2  0     0  0
 26 27  1  0     0  0
M  END
> <standard_type>
pIC50

> <# Confs.>
25

> <canonical_smiles>
O=C(NC1=CC=C(OC2=NC=NC3=C2C=C(OC)C(OC)=C3)C=C1)C4=CC=CC=C4

> <standard_relation>
=

> <Publication_ID>
nan

> <predicted_activity_value>
6.275724130399211

> <actual_activity_value>
6.359518563029578

> <Compound>
39

> <standard_units>
nM

> hash
10390496516900650148

$$$$
39_
XXILIB    08252103423D 0   0.00000     0.00000

 30 33  0     1  0            999 V2000
    1.3765    0.0000   -0.0000 O   0  0  0  0  0  2           0  0  0
    6.2896   -0.8251    3.9831 O   0  0  0  0  0  2           0  0  0
    5.1455   -2.6632    2.3381 O   0  0  0  0  0  2           0  0  0
   -5.0545    0.0149    1.7399 O   0  0  0  0  0  2           0  0  0
    1.5732    2.1511    0.9717 N   0  0  0  0  0  3           0  0  0
    3.2839    2.5541    2.6107 N   0  0  0  0  0  3           0  0  0
   -4.1967    0.0368   -0.4215 N   0  0  0  0  0  3           0  0  0
    2.0135    0.8769    0.8769 C   0  0  0  0  0  4           0  0  0
    0.0000    0.0000    0.0000 C   0  0  0  0  0  4           0  0  0
    5.2506   -0.4677    3.1708 C   0  0  0  0  0  4           0  0  0
    4.6388   -1.3943    2.3245 C   0  0  0  0  0  4           0  0  0
    2.2419    2.9203    1.8424 C   0  0  0  0  0  4           0  0  0
    3.7031    1.2834    2.4975 C   0  0  0  0  0  4           0  0  0
   -2.7980    0.0291   -0.2468 C   0  0  0  0  0  4           0  0  0
    3.0898    0.3692    1.6227 C   0  0  0  0  0  4           0  0  0
   -6.5988    0.0440   -0.0201 C   0  0  0  0  0  4           0  0  0
    4.7752    0.8446    3.2653 C   0  0  0  0  0  4           0  0  0
    3.5623   -0.9653    1.5442 C   0  0  0  0  0  4           0  0  0
   -0.8072   -0.0000    1.1418 C   0  0  0  0  0  4           0  0  0
   -0.5986    0.0278   -1.2632 C   0  0  0  0  0  4           0  0  0
   -2.2007    0.0119    1.0184 C   0  0  0  0  0  4           0  0  0
   -1.9895    0.0397   -1.3874 C   0  0  0  0  0  4           0  0  0
   -7.6327    0.5738    0.7530 C   0  0  0  0  0  4           0  0  0
   -6.8413   -0.4908   -1.2859 C   0  0  0  0  0  4           0  0  0
   -8.9302    0.5737    0.2428 C   0  0  0  0  0  4           0  0  0
   -8.1423   -0.4861   -1.7870 C   0  0  0  0  0  4           0  0  0
   -9.1848    0.0452   -1.0247 C   0  0  0  0  0  4           0  0  0
   -5.2187    0.0299    0.5219 C   0  0  0  0  0  4           0  0  0
    5.9176   -1.2865    5.2792 C   0  0  0  0  0  4           0  0  0
    4.5002   -3.5854    1.4640 C   0  0  0  0  0  4           0  0  0
  1  8  1  0     0  0
  1  9  1  0     0  0
  2 10  1  0     0  0
  2 29  1  0     0  0
  3 11  1  0     0  0
  3 30  1  0     0  0
  4 28  2  0     0  0
  5  8  2  0     0  0
  5 12  1  0     0  0
  6 12  2  0     0  0
  6 13  1  0     0  0
  7 14  1  0     0  0
  7 28  1  0     0  0
  8 15  1  0     0  0
  9 19  2  0     0  0
  9 20  1  0     0  0
 10 11  1  0     0  0
 10 17  2  0     0  0
 11 18  2  0     0  0
 13 15  2  0     0  0
 13 17  1  0     0  0
 14 21  2  0     0  0
 14 22  1  0     0  0
 15 18  1  0     0  0
 16 23  2  0     0  0
 16 24  1  0     0  0
 16 28  1  0     0  0
 19 21  1  0     0  0
 20 22  2  0     0  0
 23 25  1  0     0  0
 24 26  2  0     0  0
 25 27  2  0     0  0
 26 27  1  0     0  0
M  END
> <standard_type>
pIC50

> <# Confs.>
25

> <canonical_smiles>
O=C(NC1=CC=C(OC2=NC=NC3=C2C=C(OC)C(OC)=C3)C=C1)C4=CC=CC=C4

> <standard_relation>
=

> <Publication_ID>
nan

> <predicted_activity_value>
6.275724130399211

> <actual_activity_value>
6.359518563029578

> <Compound>
39

> <standard_units>
nM

> hash
10390496516900650148

$$$$
39_
XXILIB    08252103423D 0   0.00000     0.00000

 30 33  0     1  0            999 V2000
    1.3765   -0.0000    0.0000 O   0  0  0  0  0  2           0  0  0
    7.5553   -1.5830   -0.0353 O   0  0  0  0  0  2           0  0  0
    6.4690    0.9097   -0.0557 O   0  0  0  0  0  2           0  0  0
   -5.0545    0.0149    1.7399 O   0  0  0  0  0  2           0  0  0
    1.2659   -2.3659    0.0000 N   0  0  0  0  0  3           0  0  0
    3.3018   -3.6429   -0.0084 N   0  0  0  0  0  3           0  0  0
   -4.1967    0.0368   -0.4215 N   0  0  0  0  0  3           0  0  0
    2.0135   -1.2402    0.0000 C   0  0  0  0  0  4           0  0  0
    0.0000    0.0000    0.0000 C   0  0  0  0  0  4           0  0  0
    6.1985   -1.4245    0.0000 C   0  0  0  0  0  4           0  0  0
    5.6150   -0.1563   -0.0199 C   0  0  0  0  0  4           0  0  0
    1.9628   -3.5111   -0.0047 C   0  0  0  0  0  4           0  0  0
    4.0222   -2.5096   -0.0074 C   0  0  0  0  0  4           0  0  0
   -2.7980    0.0291   -0.2468 C   0  0  0  0  0  4           0  0  0
    3.4179   -1.2400   -0.0041 C   0  0  0  0  0  4           0  0  0
   -6.5988    0.0440   -0.0201 C   0  0  0  0  0  4           0  0  0
    5.4101   -2.5800   -0.0114 C   0  0  0  0  0  4           0  0  0
    4.2206   -0.0712   -0.0121 C   0  0  0  0  0  4           0  0  0
   -0.8072   -0.0000    1.1418 C   0  0  0  0  0  4           0  0  0
   -0.5986    0.0278   -1.2632 C   0  0  0  0  0  4           0  0  0
   -2.2007    0.0119    1.0184 C   0  0  0  0  0  4           0  0  0
   -1.9895    0.0397   -1.3874 C   0  0  0  0  0  4           0  0  0
   -6.8403    0.6308   -1.2630 C   0  0  0  0  0  4           0  0  0
   -7.6340   -0.5128    0.7318 C   0  0  0  0  0  4           0  0  0
   -8.1419    0.6514   -1.7623 C   0  0  0  0  0  4           0  0  0
   -8.9319   -0.4871    0.2236 C   0  0  0  0  0  4           0  0  0
   -9.1858    0.0934   -1.0209 C   0  0  0  0  0  4           0  0  0
   -5.2187    0.0299    0.5219 C   0  0  0  0  0  4           0  0  0
    8.1973   -1.6159    1.2366 C   0  0  0  0  0  4           0  0  0
    5.8435    2.1900   -0.0753 C   0  0  0  0  0  4           0  0  0
  1  8  1  0     0  0
  1  9  1  0     0  0
  2 10  1  0     0  0
  2 29  1  0     0  0
  3 11  1  0     0  0
  3 30  1  0     0  0
  4 28  2  0     0  0
  5  8  2  0     0  0
  5 12  1  0     0  0
  6 12  2  0     0  0
  6 13  1  0     0  0
  7 14  1  0     0  0
  7 28  1  0     0  0
  8 15  1  0     0  0
  9 19  2  0     0  0
  9 20  1  0     0  0
 10 11  1  0     0  0
 10 17  2  0     0  0
 11 18  2  0     0  0
 13 15  2  0     0  0
 13 17  1  0     0  0
 14 21  2  0     0  0
 14 22  1  0     0  0
 15 18  1  0     0  0
 16 23  2  0     0  0
 16 24  1  0     0  0
 16 28  1  0     0  0
 19 21  1  0     0  0
 20 22  2  0     0  0
 23 25  1  0     0  0
 24 26  2  0     0  0
 25 27  2  0     0  0
 26 27  1  0     0  0
M  END
> <standard_type>
pIC50

> <# Confs.>
25

> <canonical_smiles>
O=C(NC1=CC=C(OC2=NC=NC3=C2C=C(OC)C(OC)=C3)C=C1)C4=CC=CC=C4

> <standard_relation>
=

> <Publication_ID>
nan

> <predicted_activity_value>
6.275724130399211

> <actual_activity_value>
6.359518563029578

> <Compound>
39

> <standard_units>
nM

> hash
10390496516900650148

$$$$
39_
XXILIB    08252103423D 0   0.00000     0.00000

 30 33  0     1  0            999 V2000
    1.3765    0.0000    0.0000 O   0  0  0  0  0  2           0  0  0
    7.5553    1.5830    0.0353 O   0  0  0  0  0  2           0  0  0
    6.4690   -0.9097    0.0557 O   0  0  0  0  0  2           0  0  0
   -5.0545    0.0149    1.7399 O   0  0  0  0  0  2           0  0  0
    1.2659    2.3659    0.0000 N   0  0  0  0  0  3           0  0  0
    3.3018    3.6429    0.0084 N   0  0  0  0  0  3           0  0  0
   -4.1967    0.0368   -0.4215 N   0  0  0  0  0  3           0  0  0
    2.0135    1.2402    0.0000 C   0  0  0  0  0  4           0  0  0
    0.0000    0.0000    0.0000 C   0  0  0  0  0  4           0  0  0
    6.1985    1.4245   -0.0000 C   0  0  0  0  0  4           0  0  0
    5.6150    0.1563    0.0199 C   0  0  0  0  0  4           0  0  0
    1.9628    3.5111    0.0047 C   0  0  0  0  0  4           0  0  0
    4.0222    2.5096    0.0074 C   0  0  0  0  0  4           0  0  0
   -2.7980    0.0291   -0.2468 C   0  0  0  0  0  4           0  0  0
    3.4179    1.2400    0.0041 C   0  0  0  0  0  4           0  0  0
   -6.5988    0.0440   -0.0201 C   0  0  0  0  0  4           0  0  0
    5.4101    2.5800    0.0114 C   0  0  0  0  0  4           0  0  0
    4.2206    0.0712    0.0121 C   0  0  0  0  0  4           0  0  0
   -0.8072   -0.0000    1.1418 C   0  0  0  0  0  4           0  0  0
   -0.5986    0.0278   -1.2632 C   0  0  0  0  0  4           0  0  0
   -2.2007    0.0119    1.0184 C   0  0  0  0  0  4           0  0  0
   -1.9895    0.0397   -1.3874 C   0  0  0  0  0  4           0  0  0
   -6.8403    0.6308   -1.2630 C   0  0  0  0  0  4           0  0  0
   -7.6340   -0.5128    0.7318 C   0  0  0  0  0  4           0  0  0
   -8.1419    0.6514   -1.7623 C   0  0  0  0  0  4           0  0  0
   -8.9319   -0.4871    0.2236 C   0  0  0  0  0  4           0  0  0
   -9.1858    0.0934   -1.0209 C   0  0  0  0  0  4           0  0  0
   -5.2187    0.0299    0.5219 C   0  0  0  0  0  4           0  0  0
    8.1973    1.6159   -1.2366 C   0  0  0  0  0  4           0  0  0
    5.8435   -2.1900    0.0753 C   0  0  0  0  0  4           0  0  0
  1  8  1  0     0  0
  1  9  1  0     0  0
  2 10  1  0     0  0
  2 29  1  0     0  0
  3 11  1  0     0  0
  3 30  1  0     0  0
  4 28  2  0     0  0
  5  8  2  0     0  0
  5 12  1  0     0  0
  6 12  2  0     0  0
  6 13  1  0     0  0
  7 14  1  0     0  0
  7 28  1  0     0  0
  8 15  1  0     0  0
  9 19  2  0     0  0
  9 20  1  0     0  0
 10 11  1  0     0  0
 10 17  2  0     0  0
 11 18  2  0     0  0
 13 15  2  0     0  0
 13 17  1  0     0  0
 14 21  2  0     0  0
 14 22  1  0     0  0
 15 18  1  0     0  0
 16 23  2  0     0  0
 16 24  1  0     0  0
 16 28  1  0     0  0
 19 21  1  0     0  0
 20 22  2  0     0  0
 23 25  1  0     0  0
 24 26  2  0     0  0
 25 27  2  0     0  0
 26 27  1  0     0  0
M  END
> <standard_type>
pIC50

> <# Confs.>
25

> <canonical_smiles>
O=C(NC1=CC=C(OC2=NC=NC3=C2C=C(OC)C(OC)=C3)C=C1)C4=CC=CC=C4

> <standard_relation>
=

> <Publication_ID>
nan

> <predicted_activity_value>
6.275724130399211

> <actual_activity_value>
6.359518563029578

> <Compound>
39

> <standard_units>
nM

> hash
10390496516900650148

$$$$
39_
XXILIB    08252103423D 0   0.00000     0.00000

 30 33  0     1  0            999 V2000
    1.3765   -0.0000    0.0000 O   0  0  0  0  0  2           0  0  0
    7.5553   -1.5830   -0.0353 O   0  0  0  0  0  2           0  0  0
    6.4690    0.9097   -0.0557 O   0  0  0  0  0  2           0  0  0
   -5.0545    0.0149    1.7399 O   0  0  0  0  0  2           0  0  0
    1.2659   -2.3659    0.0000 N   0  0  0  0  0  3           0  0  0
    3.3018   -3.6429   -0.0084 N   0  0  0  0  0  3           0  0  0
   -4.1967    0.0368   -0.4215 N   0  0  0  0  0  3           0  0  0
    2.0135   -1.2402    0.0000 C   0  0  0  0  0  4           0  0  0
    0.0000    0.0000    0.0000 C   0  0  0  0  0  4           0  0  0
    6.1985   -1.4245    0.0000 C   0  0  0  0  0  4           0  0  0
    5.6150   -0.1563   -0.0199 C   0  0  0  0  0  4           0  0  0
    1.9628   -3.5111   -0.0047 C   0  0  0  0  0  4           0  0  0
    4.0222   -2.5096   -0.0074 C   0  0  0  0  0  4           0  0  0
   -2.7980    0.0291   -0.2468 C   0  0  0  0  0  4           0  0  0
    3.4179   -1.2400   -0.0041 C   0  0  0  0  0  4           0  0  0
   -6.5988    0.0440   -0.0201 C   0  0  0  0  0  4           0  0  0
    5.4101   -2.5800   -0.0114 C   0  0  0  0  0  4           0  0  0
    4.2206   -0.0712   -0.0121 C   0  0  0  0  0  4           0  0  0
   -0.8072   -0.0000    1.1418 C   0  0  0  0  0  4           0  0  0
   -0.5986    0.0278   -1.2632 C   0  0  0  0  0  4           0  0  0
   -2.2007    0.0119    1.0184 C   0  0  0  0  0  4           0  0  0
   -1.9895    0.0397   -1.3874 C   0  0  0  0  0  4           0  0  0
   -7.6327    0.5738    0.7530 C   0  0  0  0  0  4           0  0  0
   -6.8413   -0.4908   -1.2859 C   0  0  0  0  0  4           0  0  0
   -8.9302    0.5737    0.2428 C   0  0  0  0  0  4           0  0  0
   -8.1423   -0.4861   -1.7870 C   0  0  0  0  0  4           0  0  0
   -9.1848    0.0452   -1.0247 C   0  0  0  0  0  4           0  0  0
   -5.2187    0.0299    0.5219 C   0  0  0  0  0  4           0  0  0
    8.1214   -1.6913   -1.3386 C   0  0  0  0  0  4           0  0  0
    5.8435    2.1900   -0.0753 C   0  0  0  0  0  4           0  0  0
  1  8  1  0     0  0
  1  9  1  0     0  0
  2 10  1  0     0  0
  2 29  1  0     0  0
  3 11  1  0     0  0
  3 30  1  0     0  0
  4 28  2  0     0  0
  5  8  2  0     0  0
  5 12  1  0     0  0
  6 12  2  0     0  0
  6 13  1  0     0  0
  7 14  1  0     0  0
  7 28  1  0     0  0
  8 15  1  0     0  0
  9 19  2  0     0  0
  9 20  1  0     0  0
 10 11  1  0     0  0
 10 17  2  0     0  0
 11 18  2  0     0  0
 13 15  2  0     0  0
 13 17  1  0     0  0
 14 21  2  0     0  0
 14 22  1  0     0  0
 15 18  1  0     0  0
 16 23  2  0     0  0
 16 24  1  0     0  0
 16 28  1  0     0  0
 19 21  1  0     0  0
 20 22  2  0     0  0
 23 25  1  0     0  0
 24 26  2  0     0  0
 25 27  2  0     0  0
 26 27  1  0     0  0
M  END
> <standard_type>
pIC50

> <# Confs.>
25

> <canonical_smiles>
O=C(NC1=CC=C(OC2=NC=NC3=C2C=C(OC)C(OC)=C3)C=C1)C4=CC=CC=C4

> <standard_relation>
=

> <Publication_ID>
nan

> <predicted_activity_value>
6.275724130399211

> <actual_activity_value>
6.359518563029578

> <Compound>
39

> <standard_units>
nM

> hash
10390496516900650148

$$$$
39_
XXILIB    08252103423D 0   0.00000     0.00000

 30 33  0     1  0            999 V2000
    1.3765    0.0000    0.0000 O   0  0  0  0  0  2           0  0  0
    7.5553    1.5830    0.0353 O   0  0  0  0  0  2           0  0  0
    6.4690   -0.9097    0.0557 O   0  0  0  0  0  2           0  0  0
   -5.0545    0.0149    1.7399 O   0  0  0  0  0  2           0  0  0
    1.2659    2.3659    0.0000 N   0  0  0  0  0  3           0  0  0
    3.3018    3.6429    0.0084 N   0  0  0  0  0  3           0  0  0
   -4.1967    0.0368   -0.4215 N   0  0  0  0  0  3           0  0  0
    2.0135    1.2402    0.0000 C   0  0  0  0  0  4           0  0  0
    0.0000    0.0000    0.0000 C   0  0  0  0  0  4           0  0  0
    6.1985    1.4245   -0.0000 C   0  0  0  0  0  4           0  0  0
    5.6150    0.1563    0.0199 C   0  0  0  0  0  4           0  0  0
    1.9628    3.5111    0.0047 C   0  0  0  0  0  4           0  0  0
    4.0222    2.5096    0.0074 C   0  0  0  0  0  4           0  0  0
   -2.7980    0.0291   -0.2468 C   0  0  0  0  0  4           0  0  0
    3.4179    1.2400    0.0041 C   0  0  0  0  0  4           0  0  0
   -6.5988    0.0440   -0.0201 C   0  0  0  0  0  4           0  0  0
    5.4101    2.5800    0.0114 C   0  0  0  0  0  4           0  0  0
    4.2206    0.0712    0.0121 C   0  0  0  0  0  4           0  0  0
   -0.8072   -0.0000    1.1418 C   0  0  0  0  0  4           0  0  0
   -0.5986    0.0278   -1.2632 C   0  0  0  0  0  4           0  0  0
   -2.2007    0.0119    1.0184 C   0  0  0  0  0  4           0  0  0
   -1.9895    0.0397   -1.3874 C   0  0  0  0  0  4           0  0  0
   -7.6327    0.5738    0.7530 C   0  0  0  0  0  4           0  0  0
   -6.8413   -0.4908   -1.2859 C   0  0  0  0  0  4           0  0  0
   -8.9302    0.5737    0.2428 C   0  0  0  0  0  4           0  0  0
   -8.1423   -0.4861   -1.7870 C   0  0  0  0  0  4           0  0  0
   -9.1848    0.0452   -1.0247 C   0  0  0  0  0  4           0  0  0
   -5.2187    0.0299    0.5219 C   0  0  0  0  0  4           0  0  0
    8.1214    1.6913    1.3386 C   0  0  0  0  0  4           0  0  0
    5.8435   -2.1900    0.0753 C   0  0  0  0  0  4           0  0  0
  1  8  1  0     0  0
  1  9  1  0     0  0
  2 10  1  0     0  0
  2 29  1  0     0  0
  3 11  1  0     0  0
  3 30  1  0     0  0
  4 28  2  0     0  0
  5  8  2  0     0  0
  5 12  1  0     0  0
  6 12  2  0     0  0
  6 13  1  0     0  0
  7 14  1  0     0  0
  7 28  1  0     0  0
  8 15  1  0     0  0
  9 19  2  0     0  0
  9 20  1  0     0  0
 10 11  1  0     0  0
 10 17  2  0     0  0
 11 18  2  0     0  0
 13 15  2  0     0  0
 13 17  1  0     0  0
 14 21  2  0     0  0
 14 22  1  0     0  0
 15 18  1  0     0  0
 16 23  2  0     0  0
 16 24  1  0     0  0
 16 28  1  0     0  0
 19 21  1  0     0  0
 20 22  2  0     0  0
 23 25  1  0     0  0
 24 26  2  0     0  0
 25 27  2  0     0  0
 26 27  1  0     0  0
M  END
> <standard_type>
pIC50

> <# Confs.>
25

> <canonical_smiles>
O=C(NC1=CC=C(OC2=NC=NC3=C2C=C(OC)C(OC)=C3)C=C1)C4=CC=CC=C4

> <standard_relation>
=

> <Publication_ID>
nan

> <predicted_activity_value>
6.275724130399211

> <actual_activity_value>
6.359518563029578

> <Compound>
39

> <standard_units>
nM

> hash
10390496516900650148

$$$$
39_
XXILIB    08252103423D 0   0.00000     0.00000

 30 33  0     1  0            999 V2000
    1.3765   -0.0000    0.0000 O   0  0  0  0  0  2           0  0  0
    3.3410    4.7730    3.7476 O   0  0  0  0  0  2           0  0  0
    2.1193    4.9456    1.3244 O   0  0  0  0  0  2           0  0  0
   -5.0545    0.0149    1.7399 O   0  0  0  0  0  2           0  0  0
    2.3149   -1.1793    1.8271 N   0  0  0  0  0  3           0  0  0
    3.2664    0.0482    3.6611 N   0  0  0  0  0  3           0  0  0
   -4.1967    0.0368   -0.4215 N   0  0  0  0  0  3           0  0  0
    2.0135    0.0000    1.2402 C   0  0  0  0  0  4           0  0  0
    0.0000    0.0000    0.0000 C   0  0  0  0  0  4           0  0  0
    2.9619    3.6385    3.0869 C   0  0  0  0  0  4           0  0  0
    2.3425    3.6988    1.8371 C   0  0  0  0  0  4           0  0  0
    2.9300   -1.0826    3.0143 C   0  0  0  0  0  4           0  0  0
    2.9552    1.2068    3.0576 C   0  0  0  0  0  4           0  0  0
   -2.7980    0.0291   -0.2468 C   0  0  0  0  0  4           0  0  0
    2.3102    1.2494    1.8089 C   0  0  0  0  0  4           0  0  0
   -6.5988    0.0440   -0.0201 C   0  0  0  0  0  4           0  0  0
    3.2772    2.4093    3.6755 C   0  0  0  0  0  4           0  0  0
    2.0099    2.4974    1.2067 C   0  0  0  0  0  4           0  0  0
   -0.8072   -0.0000    1.1418 C   0  0  0  0  0  4           0  0  0
   -0.5986    0.0278   -1.2632 C   0  0  0  0  0  4           0  0  0
   -2.2007    0.0119    1.0184 C   0  0  0  0  0  4           0  0  0
   -1.9895    0.0397   -1.3874 C   0  0  0  0  0  4           0  0  0
   -6.8403    0.6308   -1.2630 C   0  0  0  0  0  4           0  0  0
   -7.6340   -0.5128    0.7318 C   0  0  0  0  0  4           0  0  0
   -8.1419    0.6514   -1.7623 C   0  0  0  0  0  4           0  0  0
   -8.9319   -0.4871    0.2236 C   0  0  0  0  0  4           0  0  0
   -9.1858    0.0934   -1.0209 C   0  0  0  0  0  4           0  0  0
   -5.2187    0.0299    0.5219 C   0  0  0  0  0  4           0  0  0
    2.3570    5.3290    4.6156 C   0  0  0  0  0  4           0  0  0
    1.4859    4.9741    0.0481 C   0  0  0  0  0  4           0  0  0
  1  8  1  0     0  0
  1  9  1  0     0  0
  2 10  1  0     0  0
  2 29  1  0     0  0
  3 11  1  0     0  0
  3 30  1  0     0  0
  4 28  2  0     0  0
  5  8  2  0     0  0
  5 12  1  0     0  0
  6 12  2  0     0  0
  6 13  1  0     0  0
  7 14  1  0     0  0
  7 28  1  0     0  0
  8 15  1  0     0  0
  9 19  2  0     0  0
  9 20  1  0     0  0
 10 11  1  0     0  0
 10 17  2  0     0  0
 11 18  2  0     0  0
 13 15  2  0     0  0
 13 17  1  0     0  0
 14 21  2  0     0  0
 14 22  1  0     0  0
 15 18  1  0     0  0
 16 23  2  0     0  0
 16 24  1  0     0  0
 16 28  1  0     0  0
 19 21  1  0     0  0
 20 22  2  0     0  0
 23 25  1  0     0  0
 24 26  2  0     0  0
 25 27  2  0     0  0
 26 27  1  0     0  0
M  END
> <standard_type>
pIC50

> <# Confs.>
25

> <canonical_smiles>
O=C(NC1=CC=C(OC2=NC=NC3=C2C=C(OC)C(OC)=C3)C=C1)C4=CC=CC=C4

> <standard_relation>
=

> <Publication_ID>
nan

> <predicted_activity_value>
6.275724130399211

> <actual_activity_value>
6.359518563029578

> <Compound>
39

> <standard_units>
nM

> hash
10390496516900650148

$$$$
39_
XXILIB    08252103423D 0   0.00000     0.00000

 30 33  0     1  0            999 V2000
    1.3765    0.0000    0.0000 O   0  0  0  0  0  2           0  0  0
    3.2782   -4.7730    3.7798 O   0  0  0  0  0  2           0  0  0
    2.0202   -4.9456    1.3753 O   0  0  0  0  0  2           0  0  0
   -5.0545    0.0149    1.7399 O   0  0  0  0  0  2           0  0  0
    2.3149    1.1793    1.8271 N   0  0  0  0  0  3           0  0  0
    3.2514   -0.0482    3.6688 N   0  0  0  0  0  3           0  0  0
   -4.1967    0.0368   -0.4215 N   0  0  0  0  0  3           0  0  0
    2.0135    0.0000    1.2402 C   0  0  0  0  0  4           0  0  0
    0.0000    0.0000    0.0000 C   0  0  0  0  0  4           0  0  0
    2.9620   -3.6385    3.0868 C   0  0  0  0  0  4           0  0  0
    2.3070   -3.6988    1.8554 C   0  0  0  0  0  4           0  0  0
    2.9216    1.0826    3.0186 C   0  0  0  0  0  4           0  0  0
    2.9421   -1.2068    3.0644 C   0  0  0  0  0  4           0  0  0
   -2.7980    0.0291   -0.2468 C   0  0  0  0  0  4           0  0  0
    2.3029   -1.2494    1.8127 C   0  0  0  0  0  4           0  0  0
   -6.5988    0.0440   -0.0201 C   0  0  0  0  0  4           0  0  0
    3.2569   -2.4093    3.6860 C   0  0  0  0  0  4           0  0  0
    1.9883   -2.4974    1.2178 C   0  0  0  0  0  4           0  0  0
   -0.8072   -0.0000    1.1418 C   0  0  0  0  0  4           0  0  0
   -0.5986    0.0278   -1.2632 C   0  0  0  0  0  4           0  0  0
   -2.2007    0.0119    1.0184 C   0  0  0  0  0  4           0  0  0
   -1.9895    0.0397   -1.3874 C   0  0  0  0  0  4           0  0  0
   -6.8403    0.6308   -1.2630 C   0  0  0  0  0  4           0  0  0
   -7.6340   -0.5128    0.7318 C   0  0  0  0  0  4           0  0  0
   -8.1419    0.6514   -1.7623 C   0  0  0  0  0  4           0  0  0
   -8.9319   -0.4871    0.2236 C   0  0  0  0  0  4           0  0  0
   -9.1858    0.0934   -1.0209 C   0  0  0  0  0  4           0  0  0
   -5.2187    0.0299    0.5219 C   0  0  0  0  0  4           0  0  0
    4.5570   -5.3290    3.4856 C   0  0  0  0  0  4           0  0  0
    1.3519   -4.9741    0.1170 C   0  0  0  0  0  4           0  0  0
  1  8  1  0     0  0
  1  9  1  0     0  0
  2 10  1  0     0  0
  2 29  1  0     0  0
  3 11  1  0     0  0
  3 30  1  0     0  0
  4 28  2  0     0  0
  5  8  2  0     0  0
  5 12  1  0     0  0
  6 12  2  0     0  0
  6 13  1  0     0  0
  7 14  1  0     0  0
  7 28  1  0     0  0
  8 15  1  0     0  0
  9 19  2  0     0  0
  9 20  1  0     0  0
 10 11  1  0     0  0
 10 17  2  0     0  0
 11 18  2  0     0  0
 13 15  2  0     0  0
 13 17  1  0     0  0
 14 21  2  0     0  0
 14 22  1  0     0  0
 15 18  1  0     0  0
 16 23  2  0     0  0
 16 24  1  0     0  0
 16 28  1  0     0  0
 19 21  1  0     0  0
 20 22  2  0     0  0
 23 25  1  0     0  0
 24 26  2  0     0  0
 25 27  2  0     0  0
 26 27  1  0     0  0
M  END
> <standard_type>
pIC50

> <# Confs.>
25

> <canonical_smiles>
O=C(NC1=CC=C(OC2=NC=NC3=C2C=C(OC)C(OC)=C3)C=C1)C4=CC=CC=C4

> <standard_relation>
=

> <Publication_ID>
nan

> <predicted_activity_value>
6.275724130399211

> <actual_activity_value>
6.359518563029578

> <Compound>
39

> <standard_units>
nM

> hash
10390496516900650148

$$$$
39_
XXILIB    08252103423D 0   0.00000     0.00000

 30 33  0     1  0            999 V2000
    1.3765   -0.0000    0.0000 O   0  0  0  0  0  2           0  0  0
    6.3339   -2.2103    3.3500 O   0  0  0  0  0  2           0  0  0
    5.2156    0.2659    3.4577 O   0  0  0  0  0  2           0  0  0
   -5.0545    0.0149    1.7399 O   0  0  0  0  0  2           0  0  0
    1.5732   -2.2081   -0.8339 N   0  0  0  0  0  3           0  0  0
    3.2945   -3.6466    0.0282 N   0  0  0  0  0  3           0  0  0
   -4.1967    0.0368   -0.4215 N   0  0  0  0  0  3           0  0  0
    2.0135   -1.2402    0.0000 C   0  0  0  0  0  4           0  0  0
    0.0000    0.0000    0.0000 C   0  0  0  0  0  4           0  0  0
    5.2505   -1.9114    2.5729 C   0  0  0  0  0  4           0  0  0
    4.6638   -0.6448    2.6014 C   0  0  0  0  0  4           0  0  0
    2.2478   -3.3647   -0.7689 C   0  0  0  0  0  4           0  0  0
    3.7124   -2.6688    0.8481 C   0  0  0  0  0  4           0  0  0
   -2.7980    0.0291   -0.2468 C   0  0  0  0  0  4           0  0  0
    3.0950   -1.4059    0.8805 C   0  0  0  0  0  4           0  0  0
   -6.5988    0.0440   -0.0201 C   0  0  0  0  0  4           0  0  0
    4.7896   -2.8987    1.6955 C   0  0  0  0  0  4           0  0  0
    3.5776   -0.4015    1.7573 C   0  0  0  0  0  4           0  0  0
   -0.8072   -0.0000    1.1418 C   0  0  0  0  0  4           0  0  0
   -0.5986    0.0278   -1.2632 C   0  0  0  0  0  4           0  0  0
   -2.2007    0.0119    1.0184 C   0  0  0  0  0  4           0  0  0
   -1.9895    0.0397   -1.3874 C   0  0  0  0  0  4           0  0  0
   -6.8403    0.6308   -1.2630 C   0  0  0  0  0  4           0  0  0
   -7.6340   -0.5128    0.7318 C   0  0  0  0  0  4           0  0  0
   -8.1419    0.6514   -1.7623 C   0  0  0  0  0  4           0  0  0
   -8.9319   -0.4871    0.2236 C   0  0  0  0  0  4           0  0  0
   -9.1858    0.0934   -1.0209 C   0  0  0  0  0  4           0  0  0
   -5.2187    0.0299    0.5219 C   0  0  0  0  0  4           0  0  0
    6.0311   -2.7285    4.6426 C   0  0  0  0  0  4           0  0  0
    4.5950    1.5488    3.4640 C   0  0  0  0  0  4           0  0  0
  1  8  1  0     0  0
  1  9  1  0     0  0
  2 10  1  0     0  0
  2 29  1  0     0  0
  3 11  1  0     0  0
  3 30  1  0     0  0
  4 28  2  0     0  0
  5  8  2  0     0  0
  5 12  1  0     0  0
  6 12  2  0     0  0
  6 13  1  0     0  0
  7 14  1  0     0  0
  7 28  1  0     0  0
  8 15  1  0     0  0
  9 19  2  0     0  0
  9 20  1  0     0  0
 10 11  1  0     0  0
 10 17  2  0     0  0
 11 18  2  0     0  0
 13 15  2  0     0  0
 13 17  1  0     0  0
 14 21  2  0     0  0
 14 22  1  0     0  0
 15 18  1  0     0  0
 16 23  2  0     0  0
 16 24  1  0     0  0
 16 28  1  0     0  0
 19 21  1  0     0  0
 20 22  2  0     0  0
 23 25  1  0     0  0
 24 26  2  0     0  0
 25 27  2  0     0  0
 26 27  1  0     0  0
M  END
> <standard_type>
pIC50

> <# Confs.>
25

> <canonical_smiles>
O=C(NC1=CC=C(OC2=NC=NC3=C2C=C(OC)C(OC)=C3)C=C1)C4=CC=CC=C4

> <standard_relation>
=

> <Publication_ID>
nan

> <predicted_activity_value>
6.275724130399211

> <actual_activity_value>
6.359518563029578

> <Compound>
39

> <standard_units>
nM

> hash
10390496516900650148

$$$$
39_
XXILIB    08252103423D 0   0.00000     0.00000

 30 33  0     1  0            999 V2000
    1.3765   -0.0000   -0.0000 O   0  0  0  0  0  2           0  0  0
    6.2896    2.2331    3.3999 O   0  0  0  0  0  2           0  0  0
    5.1455   -0.2299    3.5365 O   0  0  0  0  0  2           0  0  0
   -5.0545    0.0149    1.7399 O   0  0  0  0  0  2           0  0  0
    1.5732    2.2081   -0.8339 N   0  0  0  0  0  3           0  0  0
    3.2839    3.6520    0.0401 N   0  0  0  0  0  3           0  0  0
   -4.1967    0.0368   -0.4215 N   0  0  0  0  0  3           0  0  0
    2.0135    1.2402   -0.0000 C   0  0  0  0  0  4           0  0  0
    0.0000    0.0000    0.0000 C   0  0  0  0  0  4           0  0  0
    5.2506    1.9113    2.5728 C   0  0  0  0  0  4           0  0  0
    4.6388    0.6577    2.6296 C   0  0  0  0  0  4           0  0  0
    2.2419    3.3677   -0.7622 C   0  0  0  0  0  4           0  0  0
    3.7031    2.6735    0.8585 C   0  0  0  0  0  4           0  0  0
   -2.7980    0.0291   -0.2468 C   0  0  0  0  0  4           0  0  0
    3.0898    1.4085    0.8864 C   0  0  0  0  0  4           0  0  0
   -6.5988    0.0440   -0.0201 C   0  0  0  0  0  4           0  0  0
    4.7752    2.9061    1.7117 C   0  0  0  0  0  4           0  0  0
    3.5623    0.4093    1.7745 C   0  0  0  0  0  4           0  0  0
   -0.8072   -0.0000    1.1418 C   0  0  0  0  0  4           0  0  0
   -0.5986    0.0278   -1.2632 C   0  0  0  0  0  4           0  0  0
   -2.2007    0.0119    1.0184 C   0  0  0  0  0  4           0  0  0
   -1.9895    0.0397   -1.3874 C   0  0  0  0  0  4           0  0  0
   -6.8403    0.6308   -1.2630 C   0  0  0  0  0  4           0  0  0
   -7.6340   -0.5128    0.7318 C   0  0  0  0  0  4           0  0  0
   -8.1419    0.6514   -1.7623 C   0  0  0  0  0  4           0  0  0
   -8.9319   -0.4871    0.2236 C   0  0  0  0  0  4           0  0  0
   -9.1858    0.0934   -1.0209 C   0  0  0  0  0  4           0  0  0
   -5.2187    0.0299    0.5219 C   0  0  0  0  0  4           0  0  0
    7.5867    1.9295    2.8938 C   0  0  0  0  0  4           0  0  0
    4.5002   -1.5001    3.5705 C   0  0  0  0  0  4           0  0  0
  1  8  1  0     0  0
  1  9  1  0     0  0
  2 10  1  0     0  0
  2 29  1  0     0  0
  3 11  1  0     0  0
  3 30  1  0     0  0
  4 28  2  0     0  0
  5  8  2  0     0  0
  5 12  1  0     0  0
  6 12  2  0     0  0
  6 13  1  0     0  0
  7 14  1  0     0  0
  7 28  1  0     0  0
  8 15  1  0     0  0
  9 19  2  0     0  0
  9 20  1  0     0  0
 10 11  1  0     0  0
 10 17  2  0     0  0
 11 18  2  0     0  0
 13 15  2  0     0  0
 13 17  1  0     0  0
 14 21  2  0     0  0
 14 22  1  0     0  0
 15 18  1  0     0  0
 16 23  2  0     0  0
 16 24  1  0     0  0
 16 28  1  0     0  0
 19 21  1  0     0  0
 20 22  2  0     0  0
 23 25  1  0     0  0
 24 26  2  0     0  0
 25 27  2  0     0  0
 26 27  1  0     0  0
M  END
> <standard_type>
pIC50

> <# Confs.>
25

> <canonical_smiles>
O=C(NC1=CC=C(OC2=NC=NC3=C2C=C(OC)C(OC)=C3)C=C1)C4=CC=CC=C4

> <standard_relation>
=

> <Publication_ID>
nan

> <predicted_activity_value>
6.275724130399211

> <actual_activity_value>
6.359518563029578

> <Compound>
39

> <standard_units>
nM

> hash
10390496516900650148

$$$$
39_
XXILIB    08252103423D 0   0.00000     0.00000

 30 33  0     1  0            999 V2000
    1.3765    0.0000    0.0000 O   0  0  0  0  0  2           0  0  0
    3.2782   -4.7730    3.7798 O   0  0  0  0  0  2           0  0  0
    2.0202   -4.9456    1.3753 O   0  0  0  0  0  2           0  0  0
   -5.0545    0.0149    1.7399 O   0  0  0  0  0  2           0  0  0
    2.3149    1.1793    1.8271 N   0  0  0  0  0  3           0  0  0
    3.2514   -0.0482    3.6688 N   0  0  0  0  0  3           0  0  0
   -4.1967    0.0368   -0.4215 N   0  0  0  0  0  3           0  0  0
    2.0135    0.0000    1.2402 C   0  0  0  0  0  4           0  0  0
    0.0000    0.0000    0.0000 C   0  0  0  0  0  4           0  0  0
    2.9620   -3.6385    3.0868 C   0  0  0  0  0  4           0  0  0
    2.3070   -3.6988    1.8554 C   0  0  0  0  0  4           0  0  0
    2.9216    1.0826    3.0186 C   0  0  0  0  0  4           0  0  0
    2.9421   -1.2068    3.0644 C   0  0  0  0  0  4           0  0  0
   -2.7980    0.0291   -0.2468 C   0  0  0  0  0  4           0  0  0
    2.3029   -1.2494    1.8127 C   0  0  0  0  0  4           0  0  0
   -6.5988    0.0440   -0.0201 C   0  0  0  0  0  4           0  0  0
    3.2569   -2.4093    3.6860 C   0  0  0  0  0  4           0  0  0
    1.9883   -2.4974    1.2178 C   0  0  0  0  0  4           0  0  0
   -0.8072   -0.0000    1.1418 C   0  0  0  0  0  4           0  0  0
   -0.5986    0.0278   -1.2632 C   0  0  0  0  0  4           0  0  0
   -2.2007    0.0119    1.0184 C   0  0  0  0  0  4           0  0  0
   -1.9895    0.0397   -1.3874 C   0  0  0  0  0  4           0  0  0
   -7.6327    0.5738    0.7530 C   0  0  0  0  0  4           0  0  0
   -6.8413   -0.4908   -1.2859 C   0  0  0  0  0  4           0  0  0
   -8.9302    0.5737    0.2428 C   0  0  0  0  0  4           0  0  0
   -8.1423   -0.4861   -1.7870 C   0  0  0  0  0  4           0  0  0
   -9.1848    0.0452   -1.0247 C   0  0  0  0  0  4           0  0  0
   -5.2187    0.0299    0.5219 C   0  0  0  0  0  4           0  0  0
    2.2811   -5.2271    4.6910 C   0  0  0  0  0  4           0  0  0
    1.3519   -4.9741    0.1170 C   0  0  0  0  0  4           0  0  0
  1  8  1  0     0  0
  1  9  1  0     0  0
  2 10  1  0     0  0
  2 29  1  0     0  0
  3 11  1  0     0  0
  3 30  1  0     0  0
  4 28  2  0     0  0
  5  8  2  0     0  0
  5 12  1  0     0  0
  6 12  2  0     0  0
  6 13  1  0     0  0
  7 14  1  0     0  0
  7 28  1  0     0  0
  8 15  1  0     0  0
  9 19  2  0     0  0
  9 20  1  0     0  0
 10 11  1  0     0  0
 10 17  2  0     0  0
 11 18  2  0     0  0
 13 15  2  0     0  0
 13 17  1  0     0  0
 14 21  2  0     0  0
 14 22  1  0     0  0
 15 18  1  0     0  0
 16 23  2  0     0  0
 16 24  1  0     0  0
 16 28  1  0     0  0
 19 21  1  0     0  0
 20 22  2  0     0  0
 23 25  1  0     0  0
 24 26  2  0     0  0
 25 27  2  0     0  0
 26 27  1  0     0  0
M  END
> <standard_type>
pIC50

> <# Confs.>
25

> <canonical_smiles>
O=C(NC1=CC=C(OC2=NC=NC3=C2C=C(OC)C(OC)=C3)C=C1)C4=CC=CC=C4

> <standard_relation>
=

> <Publication_ID>
nan

> <predicted_activity_value>
6.275724130399211

> <actual_activity_value>
6.359518563029578

> <Compound>
39

> <standard_units>
nM

> hash
10390496516900650148

$$$$
39_
XXILIB    08252103423D 0   0.00000     0.00000

 30 33  0     1  0            999 V2000
    1.3765    0.0000    0.0000 O   0  0  0  0  0  2           0  0  0
    6.2896   -2.2331   -3.3999 O   0  0  0  0  0  2           0  0  0
    5.1455    0.2299   -3.5365 O   0  0  0  0  0  2           0  0  0
   -5.0545    0.0149    1.7399 O   0  0  0  0  0  2           0  0  0
    1.5732   -2.2081    0.8339 N   0  0  0  0  0  3           0  0  0
    3.2839   -3.6520   -0.0401 N   0  0  0  0  0  3           0  0  0
   -4.1967    0.0368   -0.4215 N   0  0  0  0  0  3           0  0  0
    2.0135   -1.2402    0.0000 C   0  0  0  0  0  4           0  0  0
    0.0000    0.0000    0.0000 C   0  0  0  0  0  4           0  0  0
    5.2506   -1.9113   -2.5728 C   0  0  0  0  0  4           0  0  0
    4.6388   -0.6577   -2.6296 C   0  0  0  0  0  4           0  0  0
    2.2419   -3.3677    0.7622 C   0  0  0  0  0  4           0  0  0
    3.7031   -2.6735   -0.8585 C   0  0  0  0  0  4           0  0  0
   -2.7980    0.0291   -0.2468 C   0  0  0  0  0  4           0  0  0
    3.0898   -1.4085   -0.8864 C   0  0  0  0  0  4           0  0  0
   -6.5988    0.0440   -0.0201 C   0  0  0  0  0  4           0  0  0
    4.7752   -2.9061   -1.7117 C   0  0  0  0  0  4           0  0  0
    3.5623   -0.4093   -1.7745 C   0  0  0  0  0  4           0  0  0
   -0.8072   -0.0000    1.1418 C   0  0  0  0  0  4           0  0  0
   -0.5986    0.0278   -1.2632 C   0  0  0  0  0  4           0  0  0
   -2.2007    0.0119    1.0184 C   0  0  0  0  0  4           0  0  0
   -1.9895    0.0397   -1.3874 C   0  0  0  0  0  4           0  0  0
   -6.8403    0.6308   -1.2630 C   0  0  0  0  0  4           0  0  0
   -7.6340   -0.5128    0.7318 C   0  0  0  0  0  4           0  0  0
   -8.1419    0.6514   -1.7623 C   0  0  0  0  0  4           0  0  0
   -8.9319   -0.4871    0.2236 C   0  0  0  0  0  4           0  0  0
   -9.1858    0.0934   -1.0209 C   0  0  0  0  0  4           0  0  0
   -5.2187    0.0299    0.5219 C   0  0  0  0  0  4           0  0  0
    7.5867   -1.9295   -2.8938 C   0  0  0  0  0  4           0  0  0
    4.5002    1.5001   -3.5705 C   0  0  0  0  0  4           0  0  0
  1  8  1  0     0  0
  1  9  1  0     0  0
  2 10  1  0     0  0
  2 29  1  0     0  0
  3 11  1  0     0  0
  3 30  1  0     0  0
  4 28  2  0     0  0
  5  8  2  0     0  0
  5 12  1  0     0  0
  6 12  2  0     0  0
  6 13  1  0     0  0
  7 14  1  0     0  0
  7 28  1  0     0  0
  8 15  1  0     0  0
  9 19  2  0     0  0
  9 20  1  0     0  0
 10 11  1  0     0  0
 10 17  2  0     0  0
 11 18  2  0     0  0
 13 15  2  0     0  0
 13 17  1  0     0  0
 14 21  2  0     0  0
 14 22  1  0     0  0
 15 18  1  0     0  0
 16 23  2  0     0  0
 16 24  1  0     0  0
 16 28  1  0     0  0
 19 21  1  0     0  0
 20 22  2  0     0  0
 23 25  1  0     0  0
 24 26  2  0     0  0
 25 27  2  0     0  0
 26 27  1  0     0  0
M  END
> <standard_type>
pIC50

> <# Confs.>
25

> <canonical_smiles>
O=C(NC1=CC=C(OC2=NC=NC3=C2C=C(OC)C(OC)=C3)C=C1)C4=CC=CC=C4

> <standard_relation>
=

> <Publication_ID>
nan

> <predicted_activity_value>
6.275724130399211

> <actual_activity_value>
6.359518563029578

> <Compound>
39

> <standard_units>
nM

> hash
10390496516900650148

$$$$
39_
XXILIB    08252103423D 0   0.00000     0.00000

 30 33  0     1  0            999 V2000
    1.3765   -0.0000    0.0000 O   0  0  0  0  0  2           0  0  0
    3.3410    4.7730    3.7476 O   0  0  0  0  0  2           0  0  0
    2.1193    4.9456    1.3244 O   0  0  0  0  0  2           0  0  0
   -5.0545    0.0149    1.7399 O   0  0  0  0  0  2           0  0  0
    2.3149   -1.1793    1.8271 N   0  0  0  0  0  3           0  0  0
    3.2664    0.0482    3.6611 N   0  0  0  0  0  3           0  0  0
   -4.1967    0.0368   -0.4215 N   0  0  0  0  0  3           0  0  0
    2.0135    0.0000    1.2402 C   0  0  0  0  0  4           0  0  0
    0.0000    0.0000    0.0000 C   0  0  0  0  0  4           0  0  0
    2.9619    3.6385    3.0869 C   0  0  0  0  0  4           0  0  0
    2.3425    3.6988    1.8371 C   0  0  0  0  0  4           0  0  0
    2.9300   -1.0826    3.0143 C   0  0  0  0  0  4           0  0  0
    2.9552    1.2068    3.0576 C   0  0  0  0  0  4           0  0  0
   -2.7980    0.0291   -0.2468 C   0  0  0  0  0  4           0  0  0
    2.3102    1.2494    1.8089 C   0  0  0  0  0  4           0  0  0
   -6.5988    0.0440   -0.0201 C   0  0  0  0  0  4           0  0  0
    3.2772    2.4093    3.6755 C   0  0  0  0  0  4           0  0  0
    2.0099    2.4974    1.2067 C   0  0  0  0  0  4           0  0  0
   -0.8072   -0.0000    1.1418 C   0  0  0  0  0  4           0  0  0
   -0.5986    0.0278   -1.2632 C   0  0  0  0  0  4           0  0  0
   -2.2007    0.0119    1.0184 C   0  0  0  0  0  4           0  0  0
   -1.9895    0.0397   -1.3874 C   0  0  0  0  0  4           0  0  0
   -7.6327    0.5738    0.7530 C   0  0  0  0  0  4           0  0  0
   -6.8413   -0.4908   -1.2859 C   0  0  0  0  0  4           0  0  0
   -8.9302    0.5737    0.2428 C   0  0  0  0  0  4           0  0  0
   -8.1423   -0.4861   -1.7870 C   0  0  0  0  0  4           0  0  0
   -9.1848    0.0452   -1.0247 C   0  0  0  0  0  4           0  0  0
   -5.2187    0.0299    0.5219 C   0  0  0  0  0  4           0  0  0
    4.6625    5.2271    3.4679 C   0  0  0  0  0  4           0  0  0
    1.4859    4.9741    0.0481 C   0  0  0  0  0  4           0  0  0
  1  8  1  0     0  0
  1  9  1  0     0  0
  2 10  1  0     0  0
  2 29  1  0     0  0
  3 11  1  0     0  0
  3 30  1  0     0  0
  4 28  2  0     0  0
  5  8  2  0     0  0
  5 12  1  0     0  0
  6 12  2  0     0  0
  6 13  1  0     0  0
  7 14  1  0     0  0
  7 28  1  0     0  0
  8 15  1  0     0  0
  9 19  2  0     0  0
  9 20  1  0     0  0
 10 11  1  0     0  0
 10 17  2  0     0  0
 11 18  2  0     0  0
 13 15  2  0     0  0
 13 17  1  0     0  0
 14 21  2  0     0  0
 14 22  1  0     0  0
 15 18  1  0     0  0
 16 23  2  0     0  0
 16 24  1  0     0  0
 16 28  1  0     0  0
 19 21  1  0     0  0
 20 22  2  0     0  0
 23 25  1  0     0  0
 24 26  2  0     0  0
 25 27  2  0     0  0
 26 27  1  0     0  0
M  END
> <standard_type>
pIC50

> <# Confs.>
25

> <canonical_smiles>
O=C(NC1=CC=C(OC2=NC=NC3=C2C=C(OC)C(OC)=C3)C=C1)C4=CC=CC=C4

> <standard_relation>
=

> <Publication_ID>
nan

> <predicted_activity_value>
6.275724130399211

> <actual_activity_value>
6.359518563029578

> <Compound>
39

> <standard_units>
nM

> hash
10390496516900650148

$$$$
39_
XXILIB    08252103423D 0   0.00000     0.00000

 30 33  0     1  0            999 V2000
    1.3765   -0.0000    0.0000 O   0  0  0  0  0  2           0  0  0
    6.3339    0.8059    3.9318 O   0  0  0  0  0  2           0  0  0
    5.2156    2.6330    2.2569 O   0  0  0  0  0  2           0  0  0
   -4.4965    0.0651   -2.7274 O   0  0  0  0  0  2           0  0  0
    1.5732   -2.1511    0.9717 N   0  0  0  0  0  3           0  0  0
    3.2945   -2.5586    2.5985 N   0  0  0  0  0  3           0  0  0
   -4.1967    0.0368   -0.4215 N   0  0  0  0  0  3           0  0  0
    2.0135   -0.8769    0.8769 C   0  0  0  0  0  4           0  0  0
    0.0000    0.0000    0.0000 C   0  0  0  0  0  4           0  0  0
    5.2505    0.4677    3.1708 C   0  0  0  0  0  4           0  0  0
    4.6638    1.3835    2.2954 C   0  0  0  0  0  4           0  0  0
    2.2478   -2.9228    1.8355 C   0  0  0  0  0  4           0  0  0
    3.7124   -1.2874    2.4868 C   0  0  0  0  0  4           0  0  0
   -2.7980    0.0291   -0.2468 C   0  0  0  0  0  4           0  0  0
    3.0950   -0.3715    1.6167 C   0  0  0  0  0  4           0  0  0
   -6.4263    0.0552   -1.4012 C   0  0  0  0  0  4           0  0  0
    4.7896   -0.8508    3.2486 C   0  0  0  0  0  4           0  0  0
    3.5776    0.9587    1.5265 C   0  0  0  0  0  4           0  0  0
   -0.8072   -0.0000    1.1418 C   0  0  0  0  0  4           0  0  0
   -0.5986    0.0278   -1.2632 C   0  0  0  0  0  4           0  0  0
   -2.2007    0.0119    1.0184 C   0  0  0  0  0  4           0  0  0
   -1.9895    0.0397   -1.3874 C   0  0  0  0  0  4           0  0  0
   -6.9724   -0.5273   -0.2566 C   0  0  0  0  0  4           0  0  0
   -7.2388    0.6222   -2.3838 C   0  0  0  0  0  4           0  0  0
   -8.3569   -0.5331   -0.0927 C   0  0  0  0  0  4           0  0  0
   -8.6220    0.6112   -2.2104 C   0  0  0  0  0  4           0  0  0
   -9.1803    0.0352   -1.0673 C   0  0  0  0  0  4           0  0  0
   -4.9552    0.0536   -1.5872 C   0  0  0  0  0  4           0  0  0
    6.0311    1.3535    5.2121 C   0  0  0  0  0  4           0  0  0
    4.5950    3.5445    1.3543 C   0  0  0  0  0  4           0  0  0
  1  8  1  0     0  0
  1  9  1  0     0  0
  2 10  1  0     0  0
  2 29  1  0     0  0
  3 11  1  0     0  0
  3 30  1  0     0  0
  4 28  2  0     0  0
  5  8  2  0     0  0
  5 12  1  0     0  0
  6 12  2  0     0  0
  6 13  1  0     0  0
  7 14  1  0     0  0
  7 28  1  0     0  0
  8 15  1  0     0  0
  9 19  2  0     0  0
  9 20  1  0     0  0
 10 11  1  0     0  0
 10 17  2  0     0  0
 11 18  2  0     0  0
 13 15  2  0     0  0
 13 17  1  0     0  0
 14 21  2  0     0  0
 14 22  1  0     0  0
 15 18  1  0     0  0
 16 23  2  0     0  0
 16 24  1  0     0  0
 16 28  1  0     0  0
 19 21  1  0     0  0
 20 22  2  0     0  0
 23 25  1  0     0  0
 24 26  2  0     0  0
 25 27  2  0     0  0
 26 27  1  0     0  0
M  END
> <standard_type>
pIC50

> <# Confs.>
25

> <canonical_smiles>
O=C(NC1=CC=C(OC2=NC=NC3=C2C=C(OC)C(OC)=C3)C=C1)C4=CC=CC=C4

> <standard_relation>
=

> <Publication_ID>
nan

> <predicted_activity_value>
6.275724130399211

> <actual_activity_value>
6.359518563029578

> <Compound>
39

> <standard_units>
nM

> hash
10390496516900650148

$$$$
39_
XXILIB    08252103423D 0   0.00000     0.00000

 30 33  0     1  0            999 V2000
    1.3765    0.0000   -0.0000 O   0  0  0  0  0  2           0  0  0
    6.2896   -0.8251    3.9831 O   0  0  0  0  0  2           0  0  0
    5.1455   -2.6632    2.3381 O   0  0  0  0  0  2           0  0  0
   -4.4965    0.0651   -2.7274 O   0  0  0  0  0  2           0  0  0
    1.5732    2.1511    0.9717 N   0  0  0  0  0  3           0  0  0
    3.2839    2.5541    2.6107 N   0  0  0  0  0  3           0  0  0
   -4.1967    0.0368   -0.4215 N   0  0  0  0  0  3           0  0  0
    2.0135    0.8769    0.8769 C   0  0  0  0  0  4           0  0  0
    0.0000    0.0000    0.0000 C   0  0  0  0  0  4           0  0  0
    5.2506   -0.4677    3.1708 C   0  0  0  0  0  4           0  0  0
    4.6388   -1.3943    2.3245 C   0  0  0  0  0  4           0  0  0
    2.2419    2.9203    1.8424 C   0  0  0  0  0  4           0  0  0
    3.7031    1.2834    2.4975 C   0  0  0  0  0  4           0  0  0
   -2.7980    0.0291   -0.2468 C   0  0  0  0  0  4           0  0  0
    3.0898    0.3692    1.6227 C   0  0  0  0  0  4           0  0  0
   -6.4263    0.0552   -1.4012 C   0  0  0  0  0  4           0  0  0
    4.7752    0.8446    3.2653 C   0  0  0  0  0  4           0  0  0
    3.5623   -0.9653    1.5442 C   0  0  0  0  0  4           0  0  0
   -0.8072   -0.0000    1.1418 C   0  0  0  0  0  4           0  0  0
   -0.5986    0.0278   -1.2632 C   0  0  0  0  0  4           0  0  0
   -2.2007    0.0119    1.0184 C   0  0  0  0  0  4           0  0  0
   -1.9895    0.0397   -1.3874 C   0  0  0  0  0  4           0  0  0
   -6.9724   -0.5273   -0.2566 C   0  0  0  0  0  4           0  0  0
   -7.2388    0.6222   -2.3838 C   0  0  0  0  0  4           0  0  0
   -8.3569   -0.5331   -0.0927 C   0  0  0  0  0  4           0  0  0
   -8.6220    0.6112   -2.2104 C   0  0  0  0  0  4           0  0  0
   -9.1803    0.0352   -1.0673 C   0  0  0  0  0  4           0  0  0
   -4.9552    0.0536   -1.5872 C   0  0  0  0  0  4           0  0  0
    7.5867   -0.6819    3.4106 C   0  0  0  0  0  4           0  0  0
    4.5002   -3.5854    1.4640 C   0  0  0  0  0  4           0  0  0
  1  8  1  0     0  0
  1  9  1  0     0  0
  2 10  1  0     0  0
  2 29  1  0     0  0
  3 11  1  0     0  0
  3 30  1  0     0  0
  4 28  2  0     0  0
  5  8  2  0     0  0
  5 12  1  0     0  0
  6 12  2  0     0  0
  6 13  1  0     0  0
  7 14  1  0     0  0
  7 28  1  0     0  0
  8 15  1  0     0  0
  9 19  2  0     0  0
  9 20  1  0     0  0
 10 11  1  0     0  0
 10 17  2  0     0  0
 11 18  2  0     0  0
 13 15  2  0     0  0
 13 17  1  0     0  0
 14 21  2  0     0  0
 14 22  1  0     0  0
 15 18  1  0     0  0
 16 23  2  0     0  0
 16 24  1  0     0  0
 16 28  1  0     0  0
 19 21  1  0     0  0
 20 22  2  0     0  0
 23 25  1  0     0  0
 24 26  2  0     0  0
 25 27  2  0     0  0
 26 27  1  0     0  0
M  END
> <standard_type>
pIC50

> <# Confs.>
25

> <canonical_smiles>
O=C(NC1=CC=C(OC2=NC=NC3=C2C=C(OC)C(OC)=C3)C=C1)C4=CC=CC=C4

> <standard_relation>
=

> <Publication_ID>
nan

> <predicted_activity_value>
6.275724130399211

> <actual_activity_value>
6.359518563029578

> <Compound>
39

> <standard_units>
nM

> hash
10390496516900650148

$$$$
39_
XXILIB    08252103423D 0   0.00000     0.00000

 30 33  0     1  0            999 V2000
    1.3765   -0.0000    0.0000 O   0  0  0  0  0  2           0  0  0
    6.3339   -2.2103    3.3500 O   0  0  0  0  0  2           0  0  0
    5.2156    0.2659    3.4577 O   0  0  0  0  0  2           0  0  0
   -5.0545    0.0149    1.7399 O   0  0  0  0  0  2           0  0  0
    1.5732   -2.2081   -0.8339 N   0  0  0  0  0  3           0  0  0
    3.2945   -3.6466    0.0282 N   0  0  0  0  0  3           0  0  0
   -4.1967    0.0368   -0.4215 N   0  0  0  0  0  3           0  0  0
    2.0135   -1.2402    0.0000 C   0  0  0  0  0  4           0  0  0
    0.0000    0.0000    0.0000 C   0  0  0  0  0  4           0  0  0
    5.2505   -1.9114    2.5729 C   0  0  0  0  0  4           0  0  0
    4.6638   -0.6448    2.6014 C   0  0  0  0  0  4           0  0  0
    2.2478   -3.3647   -0.7689 C   0  0  0  0  0  4           0  0  0
    3.7124   -2.6688    0.8481 C   0  0  0  0  0  4           0  0  0
   -2.7980    0.0291   -0.2468 C   0  0  0  0  0  4           0  0  0
    3.0950   -1.4059    0.8805 C   0  0  0  0  0  4           0  0  0
   -6.5988    0.0440   -0.0201 C   0  0  0  0  0  4           0  0  0
    4.7896   -2.8987    1.6955 C   0  0  0  0  0  4           0  0  0
    3.5776   -0.4015    1.7573 C   0  0  0  0  0  4           0  0  0
   -0.8072   -0.0000    1.1418 C   0  0  0  0  0  4           0  0  0
   -0.5986    0.0278   -1.2632 C   0  0  0  0  0  4           0  0  0
   -2.2007    0.0119    1.0184 C   0  0  0  0  0  4           0  0  0
   -1.9895    0.0397   -1.3874 C   0  0  0  0  0  4           0  0  0
   -7.6327    0.5738    0.7530 C   0  0  0  0  0  4           0  0  0
   -6.8413   -0.4908   -1.2859 C   0  0  0  0  0  4           0  0  0
   -8.9302    0.5737    0.2428 C   0  0  0  0  0  4           0  0  0
   -8.1423   -0.4861   -1.7870 C   0  0  0  0  0  4           0  0  0
   -9.1848    0.0452   -1.0247 C   0  0  0  0  0  4           0  0  0
   -5.2187    0.0299    0.5219 C   0  0  0  0  0  4           0  0  0
    7.6016   -1.9583    2.7496 C   0  0  0  0  0  4           0  0  0
    4.5950    1.5488    3.4640 C   0  0  0  0  0  4           0  0  0
  1  8  1  0     0  0
  1  9  1  0     0  0
  2 10  1  0     0  0
  2 29  1  0     0  0
  3 11  1  0     0  0
  3 30  1  0     0  0
  4 28  2  0     0  0
  5  8  2  0     0  0
  5 12  1  0     0  0
  6 12  2  0     0  0
  6 13  1  0     0  0
  7 14  1  0     0  0
  7 28  1  0     0  0
  8 15  1  0     0  0
  9 19  2  0     0  0
  9 20  1  0     0  0
 10 11  1  0     0  0
 10 17  2  0     0  0
 11 18  2  0     0  0
 13 15  2  0     0  0
 13 17  1  0     0  0
 14 21  2  0     0  0
 14 22  1  0     0  0
 15 18  1  0     0  0
 16 23  2  0     0  0
 16 24  1  0     0  0
 16 28  1  0     0  0
 19 21  1  0     0  0
 20 22  2  0     0  0
 23 25  1  0     0  0
 24 26  2  0     0  0
 25 27  2  0     0  0
 26 27  1  0     0  0
M  END
> <standard_type>
pIC50

> <# Confs.>
25

> <canonical_smiles>
O=C(NC1=CC=C(OC2=NC=NC3=C2C=C(OC)C(OC)=C3)C=C1)C4=CC=CC=C4

> <standard_relation>
=

> <Publication_ID>
nan

> <predicted_activity_value>
6.275724130399211

> <actual_activity_value>
6.359518563029578

> <Compound>
39

> <standard_units>
nM

> hash
10390496516900650148

$$$$
39_
XXILIB    08252103423D 0   0.00000     0.00000

 30 33  0     1  0            999 V2000
    1.3765    0.0000    0.0000 O   0  0  0  0  0  2           0  0  0
    6.3339    2.2103   -3.3500 O   0  0  0  0  0  2           0  0  0
    5.2156   -0.2659   -3.4577 O   0  0  0  0  0  2           0  0  0
   -5.0545    0.0149    1.7399 O   0  0  0  0  0  2           0  0  0
    1.5732    2.2081    0.8339 N   0  0  0  0  0  3           0  0  0
    3.2945    3.6466   -0.0282 N   0  0  0  0  0  3           0  0  0
   -4.1967    0.0368   -0.4215 N   0  0  0  0  0  3           0  0  0
    2.0135    1.2402    0.0000 C   0  0  0  0  0  4           0  0  0
    0.0000    0.0000    0.0000 C   0  0  0  0  0  4           0  0  0
    5.2505    1.9114   -2.5729 C   0  0  0  0  0  4           0  0  0
    4.6638    0.6448   -2.6014 C   0  0  0  0  0  4           0  0  0
    2.2478    3.3647    0.7689 C   0  0  0  0  0  4           0  0  0
    3.7124    2.6688   -0.8481 C   0  0  0  0  0  4           0  0  0
   -2.7980    0.0291   -0.2468 C   0  0  0  0  0  4           0  0  0
    3.0950    1.4059   -0.8805 C   0  0  0  0  0  4           0  0  0
   -6.5988    0.0440   -0.0201 C   0  0  0  0  0  4           0  0  0
    4.7896    2.8987   -1.6955 C   0  0  0  0  0  4           0  0  0
    3.5776    0.4015   -1.7573 C   0  0  0  0  0  4           0  0  0
   -0.8072   -0.0000    1.1418 C   0  0  0  0  0  4           0  0  0
   -0.5986    0.0278   -1.2632 C   0  0  0  0  0  4           0  0  0
   -2.2007    0.0119    1.0184 C   0  0  0  0  0  4           0  0  0
   -1.9895    0.0397   -1.3874 C   0  0  0  0  0  4           0  0  0
   -6.8403    0.6308   -1.2630 C   0  0  0  0  0  4           0  0  0
   -7.6340   -0.5128    0.7318 C   0  0  0  0  0  4           0  0  0
   -8.1419    0.6514   -1.7623 C   0  0  0  0  0  4           0  0  0
   -8.9319   -0.4871    0.2236 C   0  0  0  0  0  4           0  0  0
   -9.1858    0.0934   -1.0209 C   0  0  0  0  0  4           0  0  0
   -5.2187    0.0299    0.5219 C   0  0  0  0  0  4           0  0  0
    6.0311    2.7285   -4.6426 C   0  0  0  0  0  4           0  0  0
    4.5950   -1.5488   -3.4640 C   0  0  0  0  0  4           0  0  0
  1  8  1  0     0  0
  1  9  1  0     0  0
  2 10  1  0     0  0
  2 29  1  0     0  0
  3 11  1  0     0  0
  3 30  1  0     0  0
  4 28  2  0     0  0
  5  8  2  0     0  0
  5 12  1  0     0  0
  6 12  2  0     0  0
  6 13  1  0     0  0
  7 14  1  0     0  0
  7 28  1  0     0  0
  8 15  1  0     0  0
  9 19  2  0     0  0
  9 20  1  0     0  0
 10 11  1  0     0  0
 10 17  2  0     0  0
 11 18  2  0     0  0
 13 15  2  0     0  0
 13 17  1  0     0  0
 14 21  2  0     0  0
 14 22  1  0     0  0
 15 18  1  0     0  0
 16 23  2  0     0  0
 16 24  1  0     0  0
 16 28  1  0     0  0
 19 21  1  0     0  0
 20 22  2  0     0  0
 23 25  1  0     0  0
 24 26  2  0     0  0
 25 27  2  0     0  0
 26 27  1  0     0  0
M  END
> <standard_type>
pIC50

> <# Confs.>
25

> <canonical_smiles>
O=C(NC1=CC=C(OC2=NC=NC3=C2C=C(OC)C(OC)=C3)C=C1)C4=CC=CC=C4

> <standard_relation>
=

> <Publication_ID>
nan

> <predicted_activity_value>
6.275724130399211

> <actual_activity_value>
6.359518563029578

> <Compound>
39

> <standard_units>
nM

> hash
10390496516900650148

$$$$
39_
XXILIB    08252103423D 0   0.00000     0.00000

 30 33  0     1  0            999 V2000
    1.3765   -0.0000    0.0000 O   0  0  0  0  0  2           0  0  0
    7.5553   -1.1443    1.0944 O   0  0  0  0  0  2           0  0  0
    6.4690    0.6039   -0.6827 O   0  0  0  0  0  2           0  0  0
   -5.0545    0.0149    1.7399 O   0  0  0  0  0  2           0  0  0
    1.2659   -1.6730    1.6730 N   0  0  0  0  0  3           0  0  0
    3.3018   -2.5818    2.5700 N   0  0  0  0  0  3           0  0  0
   -4.1967    0.0368   -0.4215 N   0  0  0  0  0  3           0  0  0
    2.0135   -0.8769    0.8769 C   0  0  0  0  0  4           0  0  0
    0.0000    0.0000    0.0000 C   0  0  0  0  0  4           0  0  0
    6.1985   -1.0072    1.0073 C   0  0  0  0  0  4           0  0  0
    5.6150   -0.1246    0.0964 C   0  0  0  0  0  4           0  0  0
    1.9628   -2.4860    2.4794 C   0  0  0  0  0  4           0  0  0
    4.0222   -1.7798    1.7694 C   0  0  0  0  0  4           0  0  0
   -2.7980    0.0291   -0.2468 C   0  0  0  0  0  4           0  0  0
    3.4179   -0.8797    0.8739 C   0  0  0  0  0  4           0  0  0
   -6.5988    0.0440   -0.0201 C   0  0  0  0  0  4           0  0  0
    5.4101   -1.8324    1.8163 C   0  0  0  0  0  4           0  0  0
    4.2206   -0.0589    0.0418 C   0  0  0  0  0  4           0  0  0
   -0.8072   -0.0000    1.1418 C   0  0  0  0  0  4           0  0  0
   -0.5986    0.0278   -1.2632 C   0  0  0  0  0  4           0  0  0
   -2.2007    0.0119    1.0184 C   0  0  0  0  0  4           0  0  0
   -1.9895    0.0397   -1.3874 C   0  0  0  0  0  4           0  0  0
   -6.8403    0.6308   -1.2630 C   0  0  0  0  0  4           0  0  0
   -7.6340   -0.5128    0.7318 C   0  0  0  0  0  4           0  0  0
   -8.1419    0.6514   -1.7623 C   0  0  0  0  0  4           0  0  0
   -8.9319   -0.4871    0.2236 C   0  0  0  0  0  4           0  0  0
   -9.1858    0.0934   -1.0209 C   0  0  0  0  0  4           0  0  0
   -5.2187    0.0299    0.5219 C   0  0  0  0  0  4           0  0  0
    8.1214   -2.1424    0.2494 C   0  0  0  0  0  4           0  0  0
    5.8435    1.4953   -1.6019 C   0  0  0  0  0  4           0  0  0
  1  8  1  0     0  0
  1  9  1  0     0  0
  2 10  1  0     0  0
  2 29  1  0     0  0
  3 11  1  0     0  0
  3 30  1  0     0  0
  4 28  2  0     0  0
  5  8  2  0     0  0
  5 12  1  0     0  0
  6 12  2  0     0  0
  6 13  1  0     0  0
  7 14  1  0     0  0
  7 28  1  0     0  0
  8 15  1  0     0  0
  9 19  2  0     0  0
  9 20  1  0     0  0
 10 11  1  0     0  0
 10 17  2  0     0  0
 11 18  2  0     0  0
 13 15  2  0     0  0
 13 17  1  0     0  0
 14 21  2  0     0  0
 14 22  1  0     0  0
 15 18  1  0     0  0
 16 23  2  0     0  0
 16 24  1  0     0  0
 16 28  1  0     0  0
 19 21  1  0     0  0
 20 22  2  0     0  0
 23 25  1  0     0  0
 24 26  2  0     0  0
 25 27  2  0     0  0
 26 27  1  0     0  0
M  END
> <standard_type>
pIC50

> <# Confs.>
25

> <canonical_smiles>
O=C(NC1=CC=C(OC2=NC=NC3=C2C=C(OC)C(OC)=C3)C=C1)C4=CC=CC=C4

> <standard_relation>
=

> <Publication_ID>
nan

> <predicted_activity_value>
6.275724130399211

> <actual_activity_value>
6.359518563029578

> <Compound>
39

> <standard_units>
nM

> hash
10390496516900650148

$$$$
39_
XXILIB    08252103423D 0   0.00000     0.00000

 30 33  0     1  0            999 V2000
    1.3765   -0.0000   -0.0000 O   0  0  0  0  0  2           0  0  0
    6.2896    2.2331    3.3999 O   0  0  0  0  0  2           0  0  0
    5.1455   -0.2299    3.5365 O   0  0  0  0  0  2           0  0  0
   -5.0545    0.0149    1.7399 O   0  0  0  0  0  2           0  0  0
    1.5732    2.2081   -0.8339 N   0  0  0  0  0  3           0  0  0
    3.2839    3.6520    0.0401 N   0  0  0  0  0  3           0  0  0
   -4.1967    0.0368   -0.4215 N   0  0  0  0  0  3           0  0  0
    2.0135    1.2402   -0.0000 C   0  0  0  0  0  4           0  0  0
    0.0000    0.0000    0.0000 C   0  0  0  0  0  4           0  0  0
    5.2506    1.9113    2.5728 C   0  0  0  0  0  4           0  0  0
    4.6388    0.6577    2.6296 C   0  0  0  0  0  4           0  0  0
    2.2419    3.3677   -0.7622 C   0  0  0  0  0  4           0  0  0
    3.7031    2.6735    0.8585 C   0  0  0  0  0  4           0  0  0
   -2.7980    0.0291   -0.2468 C   0  0  0  0  0  4           0  0  0
    3.0898    1.4085    0.8864 C   0  0  0  0  0  4           0  0  0
   -6.5988    0.0440   -0.0201 C   0  0  0  0  0  4           0  0  0
    4.7752    2.9061    1.7117 C   0  0  0  0  0  4           0  0  0
    3.5623    0.4093    1.7745 C   0  0  0  0  0  4           0  0  0
   -0.8072   -0.0000    1.1418 C   0  0  0  0  0  4           0  0  0
   -0.5986    0.0278   -1.2632 C   0  0  0  0  0  4           0  0  0
   -2.2007    0.0119    1.0184 C   0  0  0  0  0  4           0  0  0
   -1.9895    0.0397   -1.3874 C   0  0  0  0  0  4           0  0  0
   -7.6327    0.5738    0.7530 C   0  0  0  0  0  4           0  0  0
   -6.8413   -0.4908   -1.2859 C   0  0  0  0  0  4           0  0  0
   -8.9302    0.5737    0.2428 C   0  0  0  0  0  4           0  0  0
   -8.1423   -0.4861   -1.7870 C   0  0  0  0  0  4           0  0  0
   -9.1848    0.0452   -1.0247 C   0  0  0  0  0  4           0  0  0
   -5.2187    0.0299    0.5219 C   0  0  0  0  0  4           0  0  0
    5.9176    2.8232    4.6426 C   0  0  0  0  0  4           0  0  0
    4.5002   -1.5001    3.5705 C   0  0  0  0  0  4           0  0  0
  1  8  1  0     0  0
  1  9  1  0     0  0
  2 10  1  0     0  0
  2 29  1  0     0  0
  3 11  1  0     0  0
  3 30  1  0     0  0
  4 28  2  0     0  0
  5  8  2  0     0  0
  5 12  1  0     0  0
  6 12  2  0     0  0
  6 13  1  0     0  0
  7 14  1  0     0  0
  7 28  1  0     0  0
  8 15  1  0     0  0
  9 19  2  0     0  0
  9 20  1  0     0  0
 10 11  1  0     0  0
 10 17  2  0     0  0
 11 18  2  0     0  0
 13 15  2  0     0  0
 13 17  1  0     0  0
 14 21  2  0     0  0
 14 22  1  0     0  0
 15 18  1  0     0  0
 16 23  2  0     0  0
 16 24  1  0     0  0
 16 28  1  0     0  0
 19 21  1  0     0  0
 20 22  2  0     0  0
 23 25  1  0     0  0
 24 26  2  0     0  0
 25 27  2  0     0  0
 26 27  1  0     0  0
M  END
> <standard_type>
pIC50

> <# Confs.>
25

> <canonical_smiles>
O=C(NC1=CC=C(OC2=NC=NC3=C2C=C(OC)C(OC)=C3)C=C1)C4=CC=CC=C4

> <standard_relation>
=

> <Publication_ID>
nan

> <predicted_activity_value>
6.275724130399211

> <actual_activity_value>
6.359518563029578

> <Compound>
39

> <standard_units>
nM

> hash
10390496516900650148

$$$$
39_
XXILIB    08252103423D 0   0.00000     0.00000

 30 33  0     1  0            999 V2000
    1.3765    0.0000    0.0000 O   0  0  0  0  0  2           0  0  0
    7.5553    1.0944    1.1443 O   0  0  0  0  0  2           0  0  0
    6.4690   -0.6827   -0.6039 O   0  0  0  0  0  2           0  0  0
   -5.0545    0.0149    1.7399 O   0  0  0  0  0  2           0  0  0
    1.2659    1.6730    1.6730 N   0  0  0  0  0  3           0  0  0
    3.3018    2.5700    2.5818 N   0  0  0  0  0  3           0  0  0
   -4.1967    0.0368   -0.4215 N   0  0  0  0  0  3           0  0  0
    2.0135    0.8769    0.8769 C   0  0  0  0  0  4           0  0  0
    0.0000    0.0000    0.0000 C   0  0  0  0  0  4           0  0  0
    6.1985    1.0073    1.0072 C   0  0  0  0  0  4           0  0  0
    5.6150    0.0964    0.1246 C   0  0  0  0  0  4           0  0  0
    1.9628    2.4794    2.4860 C   0  0  0  0  0  4           0  0  0
    4.0222    1.7694    1.7798 C   0  0  0  0  0  4           0  0  0
   -2.7980    0.0291   -0.2468 C   0  0  0  0  0  4           0  0  0
    3.4179    0.8739    0.8797 C   0  0  0  0  0  4           0  0  0
   -6.5988    0.0440   -0.0201 C   0  0  0  0  0  4           0  0  0
    5.4101    1.8163    1.8324 C   0  0  0  0  0  4           0  0  0
    4.2206    0.0418    0.0589 C   0  0  0  0  0  4           0  0  0
   -0.8072   -0.0000    1.1418 C   0  0  0  0  0  4           0  0  0
   -0.5986    0.0278   -1.2632 C   0  0  0  0  0  4           0  0  0
   -2.2007    0.0119    1.0184 C   0  0  0  0  0  4           0  0  0
   -1.9895    0.0397   -1.3874 C   0  0  0  0  0  4           0  0  0
   -7.6327    0.5738    0.7530 C   0  0  0  0  0  4           0  0  0
   -6.8413   -0.4908   -1.2859 C   0  0  0  0  0  4           0  0  0
   -8.9302    0.5737    0.2428 C   0  0  0  0  0  4           0  0  0
   -8.1423   -0.4861   -1.7870 C   0  0  0  0  0  4           0  0  0
   -9.1848    0.0452   -1.0247 C   0  0  0  0  0  4           0  0  0
   -5.2187    0.0299    0.5219 C   0  0  0  0  0  4           0  0  0
    8.1973    2.0170    0.2682 C   0  0  0  0  0  4           0  0  0
    5.8435   -1.6019   -1.4953 C   0  0  0  0  0  4           0  0  0
  1  8  1  0     0  0
  1  9  1  0     0  0
  2 10  1  0     0  0
  2 29  1  0     0  0
  3 11  1  0     0  0
  3 30  1  0     0  0
  4 28  2  0     0  0
  5  8  2  0     0  0
  5 12  1  0     0  0
  6 12  2  0     0  0
  6 13  1  0     0  0
  7 14  1  0     0  0
  7 28  1  0     0  0
  8 15  1  0     0  0
  9 19  2  0     0  0
  9 20  1  0     0  0
 10 11  1  0     0  0
 10 17  2  0     0  0
 11 18  2  0     0  0
 13 15  2  0     0  0
 13 17  1  0     0  0
 14 21  2  0     0  0
 14 22  1  0     0  0
 15 18  1  0     0  0
 16 23  2  0     0  0
 16 24  1  0     0  0
 16 28  1  0     0  0
 19 21  1  0     0  0
 20 22  2  0     0  0
 23 25  1  0     0  0
 24 26  2  0     0  0
 25 27  2  0     0  0
 26 27  1  0     0  0
M  END
> <standard_type>
pIC50

> <# Confs.>
25

> <canonical_smiles>
O=C(NC1=CC=C(OC2=NC=NC3=C2C=C(OC)C(OC)=C3)C=C1)C4=CC=CC=C4

> <standard_relation>
=

> <Publication_ID>
nan

> <predicted_activity_value>
6.275724130399211

> <actual_activity_value>
6.359518563029578

> <Compound>
39

> <standard_units>
nM

> hash
10390496516900650148

$$$$
39_
XXILIB    08252103423D 0   0.00000     0.00000

 30 33  0     1  0            999 V2000
    1.3765   -0.0000    0.0000 O   0  0  0  0  0  2           0  0  0
    6.3339    0.8059    3.9318 O   0  0  0  0  0  2           0  0  0
    5.2156    2.6330    2.2569 O   0  0  0  0  0  2           0  0  0
   -4.4965    0.0651   -2.7274 O   0  0  0  0  0  2           0  0  0
    1.5732   -2.1511    0.9717 N   0  0  0  0  0  3           0  0  0
    3.2945   -2.5586    2.5985 N   0  0  0  0  0  3           0  0  0
   -4.1967    0.0368   -0.4215 N   0  0  0  0  0  3           0  0  0
    2.0135   -0.8769    0.8769 C   0  0  0  0  0  4           0  0  0
    0.0000    0.0000    0.0000 C   0  0  0  0  0  4           0  0  0
    5.2505    0.4677    3.1708 C   0  0  0  0  0  4           0  0  0
    4.6638    1.3835    2.2954 C   0  0  0  0  0  4           0  0  0
    2.2478   -2.9228    1.8355 C   0  0  0  0  0  4           0  0  0
    3.7124   -1.2874    2.4868 C   0  0  0  0  0  4           0  0  0
   -2.7980    0.0291   -0.2468 C   0  0  0  0  0  4           0  0  0
    3.0950   -0.3715    1.6167 C   0  0  0  0  0  4           0  0  0
   -6.4263    0.0552   -1.4012 C   0  0  0  0  0  4           0  0  0
    4.7896   -0.8508    3.2486 C   0  0  0  0  0  4           0  0  0
    3.5776    0.9587    1.5265 C   0  0  0  0  0  4           0  0  0
   -0.8072   -0.0000    1.1418 C   0  0  0  0  0  4           0  0  0
   -0.5986    0.0278   -1.2632 C   0  0  0  0  0  4           0  0  0
   -2.2007    0.0119    1.0184 C   0  0  0  0  0  4           0  0  0
   -1.9895    0.0397   -1.3874 C   0  0  0  0  0  4           0  0  0
   -7.2441   -0.4644   -2.4055 C   0  0  0  0  0  4           0  0  0
   -6.9668    0.5943   -0.2332 C   0  0  0  0  0  4           0  0  0
   -8.6271   -0.4496   -2.2301 C   0  0  0  0  0  4           0  0  0
   -8.3510    0.6044   -0.0674 C   0  0  0  0  0  4           0  0  0
   -9.1798    0.0834   -1.0634 C   0  0  0  0  0  4           0  0  0
   -4.9552    0.0536   -1.5872 C   0  0  0  0  0  4           0  0  0
    7.6016    0.5595    3.3290 C   0  0  0  0  0  4           0  0  0
    4.5950    3.5445    1.3543 C   0  0  0  0  0  4           0  0  0
  1  8  1  0     0  0
  1  9  1  0     0  0
  2 10  1  0     0  0
  2 29  1  0     0  0
  3 11  1  0     0  0
  3 30  1  0     0  0
  4 28  2  0     0  0
  5  8  2  0     0  0
  5 12  1  0     0  0
  6 12  2  0     0  0
  6 13  1  0     0  0
  7 14  1  0     0  0
  7 28  1  0     0  0
  8 15  1  0     0  0
  9 19  2  0     0  0
  9 20  1  0     0  0
 10 11  1  0     0  0
 10 17  2  0     0  0
 11 18  2  0     0  0
 13 15  2  0     0  0
 13 17  1  0     0  0
 14 21  2  0     0  0
 14 22  1  0     0  0
 15 18  1  0     0  0
 16 23  2  0     0  0
 16 24  1  0     0  0
 16 28  1  0     0  0
 19 21  1  0     0  0
 20 22  2  0     0  0
 23 25  1  0     0  0
 24 26  2  0     0  0
 25 27  2  0     0  0
 26 27  1  0     0  0
M  END
> <standard_type>
pIC50

> <# Confs.>
25

> <canonical_smiles>
O=C(NC1=CC=C(OC2=NC=NC3=C2C=C(OC)C(OC)=C3)C=C1)C4=CC=CC=C4

> <standard_relation>
=

> <Publication_ID>
nan

> <predicted_activity_value>
6.275724130399211

> <actual_activity_value>
6.359518563029578

> <Compound>
39

> <standard_units>
nM

> hash
10390496516900650148

$$$$
39_
XXILIB    08252103423D 0   0.00000     0.00000

 30 33  0     1  0            999 V2000
    1.3765    0.0000    0.0000 O   0  0  0  0  0  2           0  0  0
    6.3339    2.2103   -3.3500 O   0  0  0  0  0  2           0  0  0
    5.2156   -0.2659   -3.4577 O   0  0  0  0  0  2           0  0  0
   -5.0545    0.0149    1.7399 O   0  0  0  0  0  2           0  0  0
    1.5732    2.2081    0.8339 N   0  0  0  0  0  3           0  0  0
    3.2945    3.6466   -0.0282 N   0  0  0  0  0  3           0  0  0
   -4.1967    0.0368   -0.4215 N   0  0  0  0  0  3           0  0  0
    2.0135    1.2402    0.0000 C   0  0  0  0  0  4           0  0  0
    0.0000    0.0000    0.0000 C   0  0  0  0  0  4           0  0  0
    5.2505    1.9114   -2.5729 C   0  0  0  0  0  4           0  0  0
    4.6638    0.6448   -2.6014 C   0  0  0  0  0  4           0  0  0
    2.2478    3.3647    0.7689 C   0  0  0  0  0  4           0  0  0
    3.7124    2.6688   -0.8481 C   0  0  0  0  0  4           0  0  0
   -2.7980    0.0291   -0.2468 C   0  0  0  0  0  4           0  0  0
    3.0950    1.4059   -0.8805 C   0  0  0  0  0  4           0  0  0
   -6.5988    0.0440   -0.0201 C   0  0  0  0  0  4           0  0  0
    4.7896    2.8987   -1.6955 C   0  0  0  0  0  4           0  0  0
    3.5776    0.4015   -1.7573 C   0  0  0  0  0  4           0  0  0
   -0.8072   -0.0000    1.1418 C   0  0  0  0  0  4           0  0  0
   -0.5986    0.0278   -1.2632 C   0  0  0  0  0  4           0  0  0
   -2.2007    0.0119    1.0184 C   0  0  0  0  0  4           0  0  0
   -1.9895    0.0397   -1.3874 C   0  0  0  0  0  4           0  0  0
   -7.6327    0.5738    0.7530 C   0  0  0  0  0  4           0  0  0
   -6.8413   -0.4908   -1.2859 C   0  0  0  0  0  4           0  0  0
   -8.9302    0.5737    0.2428 C   0  0  0  0  0  4           0  0  0
   -8.1423   -0.4861   -1.7870 C   0  0  0  0  0  4           0  0  0
   -9.1848    0.0452   -1.0247 C   0  0  0  0  0  4           0  0  0
   -5.2187    0.0299    0.5219 C   0  0  0  0  0  4           0  0  0
    7.6016    1.9583   -2.7496 C   0  0  0  0  0  4           0  0  0
    4.5950   -1.5488   -3.4640 C   0  0  0  0  0  4           0  0  0
  1  8  1  0     0  0
  1  9  1  0     0  0
  2 10  1  0     0  0
  2 29  1  0     0  0
  3 11  1  0     0  0
  3 30  1  0     0  0
  4 28  2  0     0  0
  5  8  2  0     0  0
  5 12  1  0     0  0
  6 12  2  0     0  0
  6 13  1  0     0  0
  7 14  1  0     0  0
  7 28  1  0     0  0
  8 15  1  0     0  0
  9 19  2  0     0  0
  9 20  1  0     0  0
 10 11  1  0     0  0
 10 17  2  0     0  0
 11 18  2  0     0  0
 13 15  2  0     0  0
 13 17  1  0     0  0
 14 21  2  0     0  0
 14 22  1  0     0  0
 15 18  1  0     0  0
 16 23  2  0     0  0
 16 24  1  0     0  0
 16 28  1  0     0  0
 19 21  1  0     0  0
 20 22  2  0     0  0
 23 25  1  0     0  0
 24 26  2  0     0  0
 25 27  2  0     0  0
 26 27  1  0     0  0
M  END
> <standard_type>
pIC50

> <# Confs.>
25

> <canonical_smiles>
O=C(NC1=CC=C(OC2=NC=NC3=C2C=C(OC)C(OC)=C3)C=C1)C4=CC=CC=C4

> <standard_relation>
=

> <Publication_ID>
nan

> <predicted_activity_value>
6.275724130399211

> <actual_activity_value>
6.359518563029578

> <Compound>
39

> <standard_units>
nM

> hash
10390496516900650148

$$$$
39_
XXILIB    08252103423D 0   0.00000     0.00000

 30 33  0     1  0            999 V2000
    1.3765   -0.0000    0.0000 O   0  0  0  0  0  2           0  0  0
    3.2782   -6.0477   -0.7023 O   0  0  0  0  0  2           0  0  0
    2.0202   -4.4695   -2.5246 O   0  0  0  0  0  2           0  0  0
   -5.0545    0.0149    1.7399 O   0  0  0  0  0  2           0  0  0
    2.3149   -0.4581    2.1259 N   0  0  0  0  0  3           0  0  0
    3.2514   -2.6283    2.5601 N   0  0  0  0  0  3           0  0  0
   -4.1967    0.0368   -0.4215 N   0  0  0  0  0  3           0  0  0
    2.0135   -0.8769    0.8769 C   0  0  0  0  0  4           0  0  0
    0.0000    0.0000    0.0000 C   0  0  0  0  0  4           0  0  0
    2.9620   -4.7555   -0.3901 C   0  0  0  0  0  4           0  0  0
    2.3070   -3.9274   -1.3035 C   0  0  0  0  0  4           0  0  0
    2.9216   -1.3689    2.9000 C   0  0  0  0  0  4           0  0  0
    2.9421   -3.0202    1.3135 C   0  0  0  0  0  4           0  0  0
   -2.7980    0.0291   -0.2468 C   0  0  0  0  0  4           0  0  0
    2.3029   -2.1652    0.3983 C   0  0  0  0  0  4           0  0  0
   -6.5988    0.0440   -0.0201 C   0  0  0  0  0  4           0  0  0
    3.2569   -4.3100    0.9028 C   0  0  0  0  0  4           0  0  0
    1.9883   -2.6270   -0.9048 C   0  0  0  0  0  4           0  0  0
   -0.8072   -0.0000    1.1418 C   0  0  0  0  0  4           0  0  0
   -0.5986    0.0278   -1.2632 C   0  0  0  0  0  4           0  0  0
   -2.2007    0.0119    1.0184 C   0  0  0  0  0  4           0  0  0
   -1.9895    0.0397   -1.3874 C   0  0  0  0  0  4           0  0  0
   -6.8403    0.6308   -1.2630 C   0  0  0  0  0  4           0  0  0
   -7.6340   -0.5128    0.7318 C   0  0  0  0  0  4           0  0  0
   -8.1419    0.6514   -1.7623 C   0  0  0  0  0  4           0  0  0
   -8.9319   -0.4871    0.2236 C   0  0  0  0  0  4           0  0  0
   -9.1858    0.0934   -1.0209 C   0  0  0  0  0  4           0  0  0
   -5.2187    0.0299    0.5219 C   0  0  0  0  0  4           0  0  0
    4.5570   -6.2329   -1.3035 C   0  0  0  0  0  4           0  0  0
    1.3519   -3.6000   -3.4345 C   0  0  0  0  0  4           0  0  0
  1  8  1  0     0  0
  1  9  1  0     0  0
  2 10  1  0     0  0
  2 29  1  0     0  0
  3 11  1  0     0  0
  3 30  1  0     0  0
  4 28  2  0     0  0
  5  8  2  0     0  0
  5 12  1  0     0  0
  6 12  2  0     0  0
  6 13  1  0     0  0
  7 14  1  0     0  0
  7 28  1  0     0  0
  8 15  1  0     0  0
  9 19  2  0     0  0
  9 20  1  0     0  0
 10 11  1  0     0  0
 10 17  2  0     0  0
 11 18  2  0     0  0
 13 15  2  0     0  0
 13 17  1  0     0  0
 14 21  2  0     0  0
 14 22  1  0     0  0
 15 18  1  0     0  0
 16 23  2  0     0  0
 16 24  1  0     0  0
 16 28  1  0     0  0
 19 21  1  0     0  0
 20 22  2  0     0  0
 23 25  1  0     0  0
 24 26  2  0     0  0
 25 27  2  0     0  0
 26 27  1  0     0  0
M  END
> <standard_type>
pIC50

> <# Confs.>
25

> <canonical_smiles>
O=C(NC1=CC=C(OC2=NC=NC3=C2C=C(OC)C(OC)=C3)C=C1)C4=CC=CC=C4

> <standard_relation>
=

> <Publication_ID>
nan

> <predicted_activity_value>
6.275724130399211

> <actual_activity_value>
6.359518563029578

> <Compound>
39

> <standard_units>
nM

> hash
10390496516900650148

$$$$
25_
XXILIB    08252103423D 0   0.00000     0.00000

 41 45  0     1  0            999 V2000
  -10.6347   -4.4255    4.7137 F   0  0  0  0  0  1           0  0  0
    1.3660   -0.0000   -0.0000 O   0  0  0  0  0  2           0  0  0
   -0.2630   -0.0063    2.4178 O   0  0  0  0  0  2           0  0  0
   -9.9593   -3.3077    2.7703 O   0  0  0  0  0  2           0  0  0
    7.1686    0.8401    6.0970 O   0  0  0  0  0  2           0  0  0
   -8.2608   -1.2370    0.4008 N   0  0  0  0  0  3           0  0  0
   -7.0778   -0.9944   -0.1828 N   0  0  0  0  0  3           0  0  0
   -4.7392    0.0382   -1.6784 N   0  0  0  0  0  3           0  0  0
   -2.5336   -0.0490   -2.6155 N   0  0  0  0  0  3           0  0  0
   -5.0920    0.0976    0.6791 N   0  0  0  0  0  3           0  0  0
   -8.8890   -2.1649    4.4894 N   0  0  0  0  0  3           0  0  0
    4.3879    2.3692    1.9935 N   0  0  1  0  0  3           0  0  0
   -9.5472   -4.3247    5.4925 C   0  0  0  0  0  4           0  0  0
   -0.0000    0.0000    0.0000 C   0  0  0  0  0  4           0  0  0
   -0.7802    0.0000    1.1534 C   0  0  0  0  0  4           0  0  0
   -3.8713   -0.0093   -2.6983 C   0  0  0  0  0  4           0  0  0
   -6.3664   -0.3665    0.7661 C   0  0  0  0  0  4           0  0  0
   -4.2131    0.0301   -0.4288 C   0  0  0  0  0  4           0  0  0
   -2.0085   -0.0297   -1.3839 C   0  0  0  0  0  4           0  0  0
   -8.3493   -0.7968    1.6906 C   0  0  0  0  0  4           0  0  0
   -8.6887   -3.2248    5.3936 C   0  0  0  0  0  4           0  0  0
   -2.8098    0.0166   -0.2239 C   0  0  0  0  0  4           0  0  0
   -9.2964   -5.3501    6.4038 C   0  0  0  0  0  4           0  0  0
   -0.6225   -0.0445   -1.2504 C   0  0  0  0  0  4           0  0  0
   -2.1711    0.0430    1.0413 C   0  0  0  0  0  4           0  0  0
   -7.1270   -0.2219    1.9568 C   0  0  0  0  0  4           0  0  0
   -7.5677   -3.1671    6.2306 C   0  0  0  0  0  4           0  0  0
   -8.1783   -5.2832    7.2312 C   0  0  0  0  0  4           0  0  0
   -7.3145   -4.1925    7.1451 C   0  0  0  0  0  4           0  0  0
   -9.5077   -2.2711    3.2559 C   0  0  0  0  0  4           0  0  0
    1.9805    1.1160    0.6443 C   0  0  0  0  0  4           0  0  0
    6.3442    1.9689    5.8358 C   0  0  0  0  0  4           0  0  0
   -0.0381   -1.2976    2.9780 C   0  0  0  0  0  4           0  0  0
    4.0847    2.5771    0.5749 C   0  0  0  0  0  4           0  0  0
    5.2143    1.1689    2.2008 C   0  0  0  0  0  4           0  0  0
    5.0524    3.5598    2.5461 C   0  0  0  0  0  4           0  0  0
   -9.5723   -0.9552    2.5150 C   0  0  0  0  0  4           0  0  0
    6.1568    2.1560    4.3356 C   0  0  1  0  0  4           0  0  0
    3.3195    1.3960   -0.0264 C   0  0  0  0  0  4           0  0  0
    5.4948    0.9323    3.6877 C   0  0  0  0  0  4           0  0  0
    5.3204    3.4046    4.0438 C   0  0  0  0  0  4           0  0  0
  1 13  1  0     0  0
  2 14  1  0     0  0
  2 31  1  0     0  0
  3 15  1  0     0  0
  3 33  1  0     0  0
  4 30  2  0     0  0
  5 32  1  0     0  0
  6  7  1  0     0  0
  6 20  1  0     0  0
  7 17  2  0     0  0
  8 16  1  0     0  0
  8 18  2  0     0  0
  9 16  2  0     0  0
  9 19  1  0     0  0
 10 17  1  0     0  0
 10 18  1  0     0  0
 11 21  1  0     0  0
 11 30  1  0     0  0
 12 34  1  0     0  0
 12 35  1  0     0  0
 12 36  1  0     0  0
 13 21  1  0     0  0
 13 23  2  0     0  0
 14 15  1  0     0  0
 14 24  2  0     0  0
 15 25  2  0     0  0
 17 26  1  0     0  0
 18 22  1  0     0  0
 19 22  2  0     0  0
 19 24  1  0     0  0
 20 26  2  0     0  0
 20 37  1  0     0  0
 21 27  2  0     0  0
 22 25  1  0     0  0
 23 28  1  0     0  0
 27 29  1  0     0  0
 28 29  2  0     0  0
 30 37  1  0     0  0
 31 39  1  0     0  0
 32 38  1  0     0  0
 34 39  1  0     0  0
 35 40  1  0     0  0
 36 41  1  0     0  0
 38 40  1  0     0  0
 38 41  1  0     0  0
M  END
> <standard_type>
pIC50

> <# Confs.>
25

> <canonical_smiles>
FC1=CC=CC=C1NC(CC2=CC(NC3=NC=NC4=C3C=C(OC)C(OCCCN5CCC(CO)CC5)=C4)=NN2)=O

> <standard_relation>
=

> <Publication_ID>
nan

> <predicted_activity_value>
7.769551078621726

> <actual_activity_value>
7.853871964321762

> <Compound>
25

> <standard_units>
nM

> hash
291960966420831775

$$$$
25_
XXILIB    08252103423D 0   0.00000     0.00000

 41 45  0     1  0            999 V2000
  -10.6347   -4.4255    4.7137 F   0  0  0  0  0  1           0  0  0
    1.3660    0.0000    0.0000 O   0  0  0  0  0  2           0  0  0
   -0.2630   -0.0063    2.4178 O   0  0  0  0  0  2           0  0  0
   -9.9593   -3.3077    2.7703 O   0  0  0  0  0  2           0  0  0
    8.9641    0.8514   -4.5497 O   0  0  0  0  0  2           0  0  0
   -8.2608   -1.2370    0.4008 N   0  0  0  0  0  3           0  0  0
   -7.0778   -0.9944   -0.1828 N   0  0  0  0  0  3           0  0  0
   -4.7392    0.0382   -1.6784 N   0  0  0  0  0  3           0  0  0
   -2.5336   -0.0490   -2.6155 N   0  0  0  0  0  3           0  0  0
   -5.0920    0.0976    0.6791 N   0  0  0  0  0  3           0  0  0
   -8.8890   -2.1649    4.4894 N   0  0  0  0  0  3           0  0  0
    4.5273    1.9879   -2.1143 N   0  0  1  0  0  3           0  0  0
   -9.5472   -4.3247    5.4925 C   0  0  0  0  0  4           0  0  0
   -0.0000    0.0000    0.0000 C   0  0  0  0  0  4           0  0  0
   -0.7802    0.0000    1.1534 C   0  0  0  0  0  4           0  0  0
   -3.8713   -0.0093   -2.6983 C   0  0  0  0  0  4           0  0  0
   -6.3664   -0.3665    0.7661 C   0  0  0  0  0  4           0  0  0
   -4.2131    0.0301   -0.4288 C   0  0  0  0  0  4           0  0  0
   -2.0085   -0.0297   -1.3839 C   0  0  0  0  0  4           0  0  0
   -8.3493   -0.7968    1.6906 C   0  0  0  0  0  4           0  0  0
   -8.6887   -3.2248    5.3936 C   0  0  0  0  0  4           0  0  0
   -2.8098    0.0166   -0.2239 C   0  0  0  0  0  4           0  0  0
   -9.2964   -5.3501    6.4038 C   0  0  0  0  0  4           0  0  0
   -0.6225   -0.0445   -1.2504 C   0  0  0  0  0  4           0  0  0
   -2.1711    0.0430    1.0413 C   0  0  0  0  0  4           0  0  0
   -7.1270   -0.2219    1.9568 C   0  0  0  0  0  4           0  0  0
   -7.5677   -3.1671    6.2306 C   0  0  0  0  0  4           0  0  0
   -8.1783   -5.2832    7.2312 C   0  0  0  0  0  4           0  0  0
   -7.3145   -4.1925    7.1451 C   0  0  0  0  0  4           0  0  0
   -9.5077   -2.2711    3.2559 C   0  0  0  0  0  4           0  0  0
    1.9805    1.1160    0.6443 C   0  0  0  0  0  4           0  0  0
    8.0673    1.9534   -4.6079 C   0  0  0  0  0  4           0  0  0
   -0.0381   -1.2976    2.9780 C   0  0  0  0  0  4           0  0  0
    3.2147    1.7271   -1.5168 C   0  0  0  0  0  4           0  0  0
    5.4192    0.8233   -1.9924 C   0  0  0  0  0  4           0  0  0
    4.3702    2.3772   -3.5244 C   0  0  0  0  0  4           0  0  0
   -9.5723   -0.9552    2.5150 C   0  0  0  0  0  4           0  0  0
    6.7063    1.5627   -4.0459 C   0  0  1  0  0  4           0  0  0
    3.3195    1.3960   -0.0264 C   0  0  0  0  0  4           0  0  0
    6.8027    1.1137   -2.5815 C   0  0  0  0  0  4           0  0  0
    5.7168    2.7253   -4.1605 C   0  0  0  0  0  4           0  0  0
  1 13  1  0     0  0
  2 14  1  0     0  0
  2 31  1  0     0  0
  3 15  1  0     0  0
  3 33  1  0     0  0
  4 30  2  0     0  0
  5 32  1  0     0  0
  6  7  1  0     0  0
  6 20  1  0     0  0
  7 17  2  0     0  0
  8 16  1  0     0  0
  8 18  2  0     0  0
  9 16  2  0     0  0
  9 19  1  0     0  0
 10 17  1  0     0  0
 10 18  1  0     0  0
 11 21  1  0     0  0
 11 30  1  0     0  0
 12 34  1  0     0  0
 12 35  1  0     0  0
 12 36  1  0     0  0
 13 21  1  0     0  0
 13 23  2  0     0  0
 14 15  1  0     0  0
 14 24  2  0     0  0
 15 25  2  0     0  0
 17 26  1  0     0  0
 18 22  1  0     0  0
 19 22  2  0     0  0
 19 24  1  0     0  0
 20 26  2  0     0  0
 20 37  1  0     0  0
 21 27  2  0     0  0
 22 25  1  0     0  0
 23 28  1  0     0  0
 27 29  1  0     0  0
 28 29  2  0     0  0
 30 37  1  0     0  0
 31 39  1  0     0  0
 32 38  1  0     0  0
 34 39  1  0     0  0
 35 40  1  0     0  0
 36 41  1  0     0  0
 38 40  1  0     0  0
 38 41  1  0     0  0
M  END
> <standard_type>
pIC50

> <# Confs.>
25

> <canonical_smiles>
FC1=CC=CC=C1NC(CC2=CC(NC3=NC=NC4=C3C=C(OC)C(OCCCN5CCC(CO)CC5)=C4)=NN2)=O

> <standard_relation>
=

> <Publication_ID>
nan

> <predicted_activity_value>
7.769551078621726

> <actual_activity_value>
7.853871964321762

> <Compound>
25

> <standard_units>
nM

> hash
291960966420831775

$$$$
25_
XXILIB    08252103423D 0   0.00000     0.00000

 41 45  0     1  0            999 V2000
  -10.6347   -4.4255    4.7137 F   0  0  0  0  0  1           0  0  0
    1.3660    0.0000   -0.0000 O   0  0  0  0  0  2           0  0  0
   -0.2630   -0.0063    2.4178 O   0  0  0  0  0  2           0  0  0
   -9.9593   -3.3077    2.7703 O   0  0  0  0  0  2           0  0  0
    4.5384    1.3489    7.7243 O   0  0  0  0  0  2           0  0  0
   -8.2608   -1.2370    0.4008 N   0  0  0  0  0  3           0  0  0
   -7.0778   -0.9944   -0.1828 N   0  0  0  0  0  3           0  0  0
   -4.7392    0.0382   -1.6784 N   0  0  0  0  0  3           0  0  0
   -2.5336   -0.0490   -2.6155 N   0  0  0  0  0  3           0  0  0
   -5.0920    0.0976    0.6791 N   0  0  0  0  0  3           0  0  0
   -8.8890   -2.1649    4.4894 N   0  0  0  0  0  3           0  0  0
    3.9722    2.2233    2.6426 N   0  0  1  0  0  3           0  0  0
   -9.5472   -4.3247    5.4925 C   0  0  0  0  0  4           0  0  0
   -0.0000    0.0000    0.0000 C   0  0  0  0  0  4           0  0  0
   -0.7802    0.0000    1.1534 C   0  0  0  0  0  4           0  0  0
   -3.8713   -0.0093   -2.6983 C   0  0  0  0  0  4           0  0  0
   -6.3664   -0.3665    0.7661 C   0  0  0  0  0  4           0  0  0
   -4.2131    0.0301   -0.4288 C   0  0  0  0  0  4           0  0  0
   -2.0085   -0.0297   -1.3839 C   0  0  0  0  0  4           0  0  0
   -8.3493   -0.7968    1.6906 C   0  0  0  0  0  4           0  0  0
   -8.6887   -3.2248    5.3936 C   0  0  0  0  0  4           0  0  0
   -2.8098    0.0166   -0.2239 C   0  0  0  0  0  4           0  0  0
   -9.2964   -5.3501    6.4038 C   0  0  0  0  0  4           0  0  0
   -0.6225   -0.0445   -1.2504 C   0  0  0  0  0  4           0  0  0
   -2.1711    0.0430    1.0413 C   0  0  0  0  0  4           0  0  0
   -7.1270   -0.2219    1.9568 C   0  0  0  0  0  4           0  0  0
   -7.5677   -3.1671    6.2306 C   0  0  0  0  0  4           0  0  0
   -8.1783   -5.2832    7.2312 C   0  0  0  0  0  4           0  0  0
   -7.3145   -4.1925    7.1451 C   0  0  0  0  0  4           0  0  0
   -9.5077   -2.2711    3.2559 C   0  0  0  0  0  4           0  0  0
    1.9805    1.1160    0.6443 C   0  0  0  0  0  4           0  0  0
    4.2049    2.4991    6.9578 C   0  0  0  0  0  4           0  0  0
   -0.0381   -1.2976    2.9780 C   0  0  0  0  0  4           0  0  0
    4.2759    2.1028    1.2140 C   0  0  0  0  0  4           0  0  0
    4.3078    0.9907    3.3739 C   0  0  0  0  0  4           0  0  0
    4.6850    3.3770    3.2133 C   0  0  0  0  0  4           0  0  0
   -9.5723   -0.9552    2.5150 C   0  0  0  0  0  4           0  0  0
    4.6358    2.3166    5.5081 C   0  0  1  0  0  4           0  0  0
    3.4938    0.9636    0.5563 C   0  0  0  0  0  4           0  0  0
    3.9512    1.1062    4.8589 C   0  0  0  0  0  4           0  0  0
    4.3353    3.5746    4.6891 C   0  0  0  0  0  4           0  0  0
  1 13  1  0     0  0
  2 14  1  0     0  0
  2 31  1  0     0  0
  3 15  1  0     0  0
  3 33  1  0     0  0
  4 30  2  0     0  0
  5 32  1  0     0  0
  6  7  1  0     0  0
  6 20  1  0     0  0
  7 17  2  0     0  0
  8 16  1  0     0  0
  8 18  2  0     0  0
  9 16  2  0     0  0
  9 19  1  0     0  0
 10 17  1  0     0  0
 10 18  1  0     0  0
 11 21  1  0     0  0
 11 30  1  0     0  0
 12 34  1  0     0  0
 12 35  1  0     0  0
 12 36  1  0     0  0
 13 21  1  0     0  0
 13 23  2  0     0  0
 14 15  1  0     0  0
 14 24  2  0     0  0
 15 25  2  0     0  0
 17 26  1  0     0  0
 18 22  1  0     0  0
 19 22  2  0     0  0
 19 24  1  0     0  0
 20 26  2  0     0  0
 20 37  1  0     0  0
 21 27  2  0     0  0
 22 25  1  0     0  0
 23 28  1  0     0  0
 27 29  1  0     0  0
 28 29  2  0     0  0
 30 37  1  0     0  0
 31 39  1  0     0  0
 32 38  1  0     0  0
 34 39  1  0     0  0
 35 40  1  0     0  0
 36 41  1  0     0  0
 38 40  1  0     0  0
 38 41  1  0     0  0
M  END
> <standard_type>
pIC50

> <# Confs.>
25

> <canonical_smiles>
FC1=CC=CC=C1NC(CC2=CC(NC3=NC=NC4=C3C=C(OC)C(OCCCN5CCC(CO)CC5)=C4)=NN2)=O

> <standard_relation>
=

> <Publication_ID>
nan

> <predicted_activity_value>
7.769551078621726

> <actual_activity_value>
7.853871964321762

> <Compound>
25

> <standard_units>
nM

> hash
291960966420831775

$$$$
25_
XXILIB    08252103423D 0   0.00000     0.00000

 41 45  0     1  0            999 V2000
  -12.9277    1.6400    2.4497 F   0  0  0  0  0  1           0  0  0
    1.3660   -0.0000   -0.0000 O   0  0  0  0  0  2           0  0  0
   -0.2630   -0.0063    2.4178 O   0  0  0  0  0  2           0  0  0
  -11.3175    0.2954    1.4476 O   0  0  0  0  0  2           0  0  0
    7.1686    0.8401    6.0970 O   0  0  0  0  0  2           0  0  0
   -8.2608   -1.2370    0.4008 N   0  0  0  0  0  3           0  0  0
   -7.0778   -0.9944   -0.1828 N   0  0  0  0  0  3           0  0  0
   -4.7392    0.0382   -1.6784 N   0  0  0  0  0  3           0  0  0
   -2.5336   -0.0490   -2.6155 N   0  0  0  0  0  3           0  0  0
   -5.0920    0.0976    0.6791 N   0  0  0  0  0  3           0  0  0
  -10.2028    1.2572    3.2473 N   0  0  0  0  0  3           0  0  0
    4.3879    2.3692    1.9935 N   0  0  1  0  0  3           0  0  0
  -12.2054    2.6671    2.9216 C   0  0  0  0  0  4           0  0  0
   -0.0000    0.0000    0.0000 C   0  0  0  0  0  4           0  0  0
   -0.7802    0.0000    1.1534 C   0  0  0  0  0  4           0  0  0
   -3.8713   -0.0093   -2.6983 C   0  0  0  0  0  4           0  0  0
   -6.3664   -0.3665    0.7661 C   0  0  0  0  0  4           0  0  0
   -4.2131    0.0301   -0.4288 C   0  0  0  0  0  4           0  0  0
   -2.0085   -0.0297   -1.3839 C   0  0  0  0  0  4           0  0  0
   -8.3493   -0.7968    1.6906 C   0  0  0  0  0  4           0  0  0
  -10.8736    2.4929    3.3121 C   0  0  0  0  0  4           0  0  0
   -2.8098    0.0166   -0.2239 C   0  0  0  0  0  4           0  0  0
  -12.8218    3.9147    3.0128 C   0  0  0  0  0  4           0  0  0
   -0.6225   -0.0445   -1.2504 C   0  0  0  0  0  4           0  0  0
   -2.1711    0.0430    1.0413 C   0  0  0  0  0  4           0  0  0
   -7.1270   -0.2219    1.9568 C   0  0  0  0  0  4           0  0  0
  -10.1630    3.5978    3.7967 C   0  0  0  0  0  4           0  0  0
  -12.1063    5.0070    3.4968 C   0  0  0  0  0  4           0  0  0
  -10.7778    4.8490    3.8884 C   0  0  0  0  0  4           0  0  0
  -10.4597    0.2541    2.3289 C   0  0  0  0  0  4           0  0  0
    1.9805    1.1160    0.6443 C   0  0  0  0  0  4           0  0  0
    6.3442    1.9689    5.8358 C   0  0  0  0  0  4           0  0  0
   -0.0381   -1.2976    2.9780 C   0  0  0  0  0  4           0  0  0
    4.0847    2.5771    0.5749 C   0  0  0  0  0  4           0  0  0
    5.2143    1.1689    2.2008 C   0  0  0  0  0  4           0  0  0
    5.0524    3.5598    2.5461 C   0  0  0  0  0  4           0  0  0
   -9.5723   -0.9552    2.5150 C   0  0  0  0  0  4           0  0  0
    6.1568    2.1560    4.3356 C   0  0  1  0  0  4           0  0  0
    3.3195    1.3960   -0.0264 C   0  0  0  0  0  4           0  0  0
    5.4948    0.9323    3.6877 C   0  0  0  0  0  4           0  0  0
    5.3204    3.4046    4.0438 C   0  0  0  0  0  4           0  0  0
  1 13  1  0     0  0
  2 14  1  0     0  0
  2 31  1  0     0  0
  3 15  1  0     0  0
  3 33  1  0     0  0
  4 30  2  0     0  0
  5 32  1  0     0  0
  6  7  1  0     0  0
  6 20  1  0     0  0
  7 17  2  0     0  0
  8 16  1  0     0  0
  8 18  2  0     0  0
  9 16  2  0     0  0
  9 19  1  0     0  0
 10 17  1  0     0  0
 10 18  1  0     0  0
 11 21  1  0     0  0
 11 30  1  0     0  0
 12 34  1  0     0  0
 12 35  1  0     0  0
 12 36  1  0     0  0
 13 21  1  0     0  0
 13 23  2  0     0  0
 14 15  1  0     0  0
 14 24  2  0     0  0
 15 25  2  0     0  0
 17 26  1  0     0  0
 18 22  1  0     0  0
 19 22  2  0     0  0
 19 24  1  0     0  0
 20 26  2  0     0  0
 20 37  1  0     0  0
 21 27  2  0     0  0
 22 25  1  0     0  0
 23 28  1  0     0  0
 27 29  1  0     0  0
 28 29  2  0     0  0
 30 37  1  0     0  0
 31 39  1  0     0  0
 32 38  1  0     0  0
 34 39  1  0     0  0
 35 40  1  0     0  0
 36 41  1  0     0  0
 38 40  1  0     0  0
 38 41  1  0     0  0
M  END
> <standard_type>
pIC50

> <# Confs.>
25

> <canonical_smiles>
FC1=CC=CC=C1NC(CC2=CC(NC3=NC=NC4=C3C=C(OC)C(OCCCN5CCC(CO)CC5)=C4)=NN2)=O

> <standard_relation>
=

> <Publication_ID>
nan

> <predicted_activity_value>
7.769551078621726

> <actual_activity_value>
7.853871964321762

> <Compound>
25

> <standard_units>
nM

> hash
291960966420831775

$$$$
25_
XXILIB    08252103423D 0   0.00000     0.00000

 41 45  0     1  0            999 V2000
  -10.6347   -4.4255    4.7137 F   0  0  0  0  0  1           0  0  0
    1.3660   -0.0000   -0.0000 O   0  0  0  0  0  2           0  0  0
   -0.2630   -0.0063    2.4178 O   0  0  0  0  0  2           0  0  0
   -9.9593   -3.3077    2.7703 O   0  0  0  0  0  2           0  0  0
    1.4034    7.9633   -2.4385 O   0  0  0  0  0  2           0  0  0
   -8.2608   -1.2370    0.4008 N   0  0  0  0  0  3           0  0  0
   -7.0778   -0.9944   -0.1828 N   0  0  0  0  0  3           0  0  0
   -4.7392    0.0382   -1.6784 N   0  0  0  0  0  3           0  0  0
   -2.5336   -0.0490   -2.6155 N   0  0  0  0  0  3           0  0  0
   -5.0920    0.0976    0.6791 N   0  0  0  0  0  3           0  0  0
   -8.8890   -2.1649    4.4894 N   0  0  0  0  0  3           0  0  0
    2.3942    2.9171   -1.7579 N   0  0  1  0  0  3           0  0  0
   -9.5472   -4.3247    5.4925 C   0  0  0  0  0  4           0  0  0
   -0.0000    0.0000    0.0000 C   0  0  0  0  0  4           0  0  0
   -0.7802    0.0000    1.1534 C   0  0  0  0  0  4           0  0  0
   -3.8713   -0.0093   -2.6983 C   0  0  0  0  0  4           0  0  0
   -6.3664   -0.3665    0.7661 C   0  0  0  0  0  4           0  0  0
   -4.2131    0.0301   -0.4288 C   0  0  0  0  0  4           0  0  0
   -2.0085   -0.0297   -1.3839 C   0  0  0  0  0  4           0  0  0
   -8.3493   -0.7968    1.6906 C   0  0  0  0  0  4           0  0  0
   -8.6887   -3.2248    5.3936 C   0  0  0  0  0  4           0  0  0
   -2.8098    0.0166   -0.2239 C   0  0  0  0  0  4           0  0  0
   -9.2964   -5.3501    6.4038 C   0  0  0  0  0  4           0  0  0
   -0.6225   -0.0445   -1.2504 C   0  0  0  0  0  4           0  0  0
   -2.1711    0.0430    1.0413 C   0  0  0  0  0  4           0  0  0
   -7.1270   -0.2219    1.9568 C   0  0  0  0  0  4           0  0  0
   -7.5677   -3.1671    6.2306 C   0  0  0  0  0  4           0  0  0
   -8.1783   -5.2832    7.2312 C   0  0  0  0  0  4           0  0  0
   -7.3145   -4.1925    7.1451 C   0  0  0  0  0  4           0  0  0
   -9.5077   -2.2711    3.2559 C   0  0  0  0  0  4           0  0  0
    1.9805    1.1160    0.6443 C   0  0  0  0  0  4           0  0  0
    0.8968    6.7751   -3.0328 C   0  0  0  0  0  4           0  0  0
   -0.0381   -1.2976    2.9780 C   0  0  0  0  0  4           0  0  0
    3.2147    1.7271   -1.5168 C   0  0  0  0  0  4           0  0  0
    2.9519    4.1044   -1.0901 C   0  0  0  0  0  4           0  0  0
    2.2578    3.1501   -3.2042 C   0  0  0  0  0  4           0  0  0
   -9.5723   -0.9552    2.5150 C   0  0  0  0  0  4           0  0  0
    1.8568    5.6144   -2.8050 C   0  0  1  0  0  4           0  0  0
    3.3195    1.3960   -0.0264 C   0  0  0  0  0  4           0  0  0
    2.0699    5.3369   -1.3107 C   0  0  0  0  0  4           0  0  0
    1.3482    4.3451   -3.4936 C   0  0  0  0  0  4           0  0  0
  1 13  1  0     0  0
  2 14  1  0     0  0
  2 31  1  0     0  0
  3 15  1  0     0  0
  3 33  1  0     0  0
  4 30  2  0     0  0
  5 32  1  0     0  0
  6  7  1  0     0  0
  6 20  1  0     0  0
  7 17  2  0     0  0
  8 16  1  0     0  0
  8 18  2  0     0  0
  9 16  2  0     0  0
  9 19  1  0     0  0
 10 17  1  0     0  0
 10 18  1  0     0  0
 11 21  1  0     0  0
 11 30  1  0     0  0
 12 34  1  0     0  0
 12 35  1  0     0  0
 12 36  1  0     0  0
 13 21  1  0     0  0
 13 23  2  0     0  0
 14 15  1  0     0  0
 14 24  2  0     0  0
 15 25  2  0     0  0
 17 26  1  0     0  0
 18 22  1  0     0  0
 19 22  2  0     0  0
 19 24  1  0     0  0
 20 26  2  0     0  0
 20 37  1  0     0  0
 21 27  2  0     0  0
 22 25  1  0     0  0
 23 28  1  0     0  0
 27 29  1  0     0  0
 28 29  2  0     0  0
 30 37  1  0     0  0
 31 39  1  0     0  0
 32 38  1  0     0  0
 34 39  1  0     0  0
 35 40  1  0     0  0
 36 41  1  0     0  0
 38 40  1  0     0  0
 38 41  1  0     0  0
M  END
> <standard_type>
pIC50

> <# Confs.>
25

> <canonical_smiles>
FC1=CC=CC=C1NC(CC2=CC(NC3=NC=NC4=C3C=C(OC)C(OCCCN5CCC(CO)CC5)=C4)=NN2)=O

> <standard_relation>
=

> <Publication_ID>
nan

> <predicted_activity_value>
7.769551078621726

> <actual_activity_value>
7.853871964321762

> <Compound>
25

> <standard_units>
nM

> hash
291960966420831775

$$$$
25_
XXILIB    08252103423D 0   0.00000     0.00000

 41 45  0     1  0            999 V2000
  -11.3244    2.5878    0.9715 F   0  0  0  0  0  1           0  0  0
    1.3660   -0.0000   -0.0000 O   0  0  0  0  0  2           0  0  0
   -0.2630   -0.0063    2.4178 O   0  0  0  0  0  2           0  0  0
  -11.3175    0.2954    1.4476 O   0  0  0  0  0  2           0  0  0
    7.1686    0.8401    6.0970 O   0  0  0  0  0  2           0  0  0
   -8.2608   -1.2370    0.4008 N   0  0  0  0  0  3           0  0  0
   -7.0778   -0.9944   -0.1828 N   0  0  0  0  0  3           0  0  0
   -4.7392    0.0382   -1.6784 N   0  0  0  0  0  3           0  0  0
   -2.5336   -0.0490   -2.6155 N   0  0  0  0  0  3           0  0  0
   -5.0920    0.0976    0.6791 N   0  0  0  0  0  3           0  0  0
  -10.2028    1.2572    3.2473 N   0  0  0  0  0  3           0  0  0
    4.3879    2.3692    1.9935 N   0  0  1  0  0  3           0  0  0
  -11.4191    3.1320    2.1938 C   0  0  0  0  0  4           0  0  0
   -0.0000    0.0000    0.0000 C   0  0  0  0  0  4           0  0  0
   -0.7802    0.0000    1.1534 C   0  0  0  0  0  4           0  0  0
   -3.8713   -0.0093   -2.6983 C   0  0  0  0  0  4           0  0  0
   -6.3664   -0.3665    0.7661 C   0  0  0  0  0  4           0  0  0
   -4.2131    0.0301   -0.4288 C   0  0  0  0  0  4           0  0  0
   -2.0085   -0.0297   -1.3839 C   0  0  0  0  0  4           0  0  0
   -8.3493   -0.7968    1.6906 C   0  0  0  0  0  4           0  0  0
  -10.8736    2.4929    3.3121 C   0  0  0  0  0  4           0  0  0
   -2.8098    0.0166   -0.2239 C   0  0  0  0  0  4           0  0  0
  -12.0789    4.3544    2.3177 C   0  0  0  0  0  4           0  0  0
   -0.6225   -0.0445   -1.2504 C   0  0  0  0  0  4           0  0  0
   -2.1711    0.0430    1.0413 C   0  0  0  0  0  4           0  0  0
   -7.1270   -0.2219    1.9568 C   0  0  0  0  0  4           0  0  0
  -10.9985    3.1040    4.5657 C   0  0  0  0  0  4           0  0  0
  -12.1982    4.9533    3.5693 C   0  0  0  0  0  4           0  0  0
  -11.6583    4.3289    4.6926 C   0  0  0  0  0  4           0  0  0
  -10.4597    0.2541    2.3289 C   0  0  0  0  0  4           0  0  0
    1.9805    1.1160    0.6443 C   0  0  0  0  0  4           0  0  0
    6.3442    1.9689    5.8358 C   0  0  0  0  0  4           0  0  0
   -0.0381   -1.2976    2.9780 C   0  0  0  0  0  4           0  0  0
    4.0847    2.5771    0.5749 C   0  0  0  0  0  4           0  0  0
    5.2143    1.1689    2.2008 C   0  0  0  0  0  4           0  0  0
    5.0524    3.5598    2.5461 C   0  0  0  0  0  4           0  0  0
   -9.5723   -0.9552    2.5150 C   0  0  0  0  0  4           0  0  0
    6.1568    2.1560    4.3356 C   0  0  1  0  0  4           0  0  0
    3.3195    1.3960   -0.0264 C   0  0  0  0  0  4           0  0  0
    5.4948    0.9323    3.6877 C   0  0  0  0  0  4           0  0  0
    5.3204    3.4046    4.0438 C   0  0  0  0  0  4           0  0  0
  1 13  1  0     0  0
  2 14  1  0     0  0
  2 31  1  0     0  0
  3 15  1  0     0  0
  3 33  1  0     0  0
  4 30  2  0     0  0
  5 32  1  0     0  0
  6  7  1  0     0  0
  6 20  1  0     0  0
  7 17  2  0     0  0
  8 16  1  0     0  0
  8 18  2  0     0  0
  9 16  2  0     0  0
  9 19  1  0     0  0
 10 17  1  0     0  0
 10 18  1  0     0  0
 11 21  1  0     0  0
 11 30  1  0     0  0
 12 34  1  0     0  0
 12 35  1  0     0  0
 12 36  1  0     0  0
 13 21  1  0     0  0
 13 23  2  0     0  0
 14 15  1  0     0  0
 14 24  2  0     0  0
 15 25  2  0     0  0
 17 26  1  0     0  0
 18 22  1  0     0  0
 19 22  2  0     0  0
 19 24  1  0     0  0
 20 26  2  0     0  0
 20 37  1  0     0  0
 21 27  2  0     0  0
 22 25  1  0     0  0
 23 28  1  0     0  0
 27 29  1  0     0  0
 28 29  2  0     0  0
 30 37  1  0     0  0
 31 39  1  0     0  0
 32 38  1  0     0  0
 34 39  1  0     0  0
 35 40  1  0     0  0
 36 41  1  0     0  0
 38 40  1  0     0  0
 38 41  1  0     0  0
M  END
> <standard_type>
pIC50

> <# Confs.>
25

> <canonical_smiles>
FC1=CC=CC=C1NC(CC2=CC(NC3=NC=NC4=C3C=C(OC)C(OCCCN5CCC(CO)CC5)=C4)=NN2)=O

> <standard_relation>
=

> <Publication_ID>
nan

> <predicted_activity_value>
7.769551078621726

> <actual_activity_value>
7.853871964321762

> <Compound>
25

> <standard_units>
nM

> hash
291960966420831775

$$$$
25_
XXILIB    08252103423D 0   0.00000     0.00000

 41 45  0     1  0            999 V2000
  -12.9277    1.6400    2.4497 F   0  0  0  0  0  1           0  0  0
    1.3660    0.0000    0.0000 O   0  0  0  0  0  2           0  0  0
   -0.2630   -0.0063    2.4178 O   0  0  0  0  0  2           0  0  0
  -11.3175    0.2954    1.4476 O   0  0  0  0  0  2           0  0  0
    8.9641    0.8514   -4.5497 O   0  0  0  0  0  2           0  0  0
   -8.2608   -1.2370    0.4008 N   0  0  0  0  0  3           0  0  0
   -7.0778   -0.9944   -0.1828 N   0  0  0  0  0  3           0  0  0
   -4.7392    0.0382   -1.6784 N   0  0  0  0  0  3           0  0  0
   -2.5336   -0.0490   -2.6155 N   0  0  0  0  0  3           0  0  0
   -5.0920    0.0976    0.6791 N   0  0  0  0  0  3           0  0  0
  -10.2028    1.2572    3.2473 N   0  0  0  0  0  3           0  0  0
    4.5273    1.9879   -2.1143 N   0  0  1  0  0  3           0  0  0
  -12.2054    2.6671    2.9216 C   0  0  0  0  0  4           0  0  0
   -0.0000    0.0000    0.0000 C   0  0  0  0  0  4           0  0  0
   -0.7802    0.0000    1.1534 C   0  0  0  0  0  4           0  0  0
   -3.8713   -0.0093   -2.6983 C   0  0  0  0  0  4           0  0  0
   -6.3664   -0.3665    0.7661 C   0  0  0  0  0  4           0  0  0
   -4.2131    0.0301   -0.4288 C   0  0  0  0  0  4           0  0  0
   -2.0085   -0.0297   -1.3839 C   0  0  0  0  0  4           0  0  0
   -8.3493   -0.7968    1.6906 C   0  0  0  0  0  4           0  0  0
  -10.8736    2.4929    3.3121 C   0  0  0  0  0  4           0  0  0
   -2.8098    0.0166   -0.2239 C   0  0  0  0  0  4           0  0  0
  -12.8218    3.9147    3.0128 C   0  0  0  0  0  4           0  0  0
   -0.6225   -0.0445   -1.2504 C   0  0  0  0  0  4           0  0  0
   -2.1711    0.0430    1.0413 C   0  0  0  0  0  4           0  0  0
   -7.1270   -0.2219    1.9568 C   0  0  0  0  0  4           0  0  0
  -10.1630    3.5978    3.7967 C   0  0  0  0  0  4           0  0  0
  -12.1063    5.0070    3.4968 C   0  0  0  0  0  4           0  0  0
  -10.7778    4.8490    3.8884 C   0  0  0  0  0  4           0  0  0
  -10.4597    0.2541    2.3289 C   0  0  0  0  0  4           0  0  0
    1.9805    1.1160    0.6443 C   0  0  0  0  0  4           0  0  0
    8.0673    1.9534   -4.6079 C   0  0  0  0  0  4           0  0  0
   -0.0381   -1.2976    2.9780 C   0  0  0  0  0  4           0  0  0
    3.2147    1.7271   -1.5168 C   0  0  0  0  0  4           0  0  0
    5.4192    0.8233   -1.9924 C   0  0  0  0  0  4           0  0  0
    4.3702    2.3772   -3.5244 C   0  0  0  0  0  4           0  0  0
   -9.5723   -0.9552    2.5150 C   0  0  0  0  0  4           0  0  0
    6.7063    1.5627   -4.0459 C   0  0  1  0  0  4           0  0  0
    3.3195    1.3960   -0.0264 C   0  0  0  0  0  4           0  0  0
    6.8027    1.1137   -2.5815 C   0  0  0  0  0  4           0  0  0
    5.7168    2.7253   -4.1605 C   0  0  0  0  0  4           0  0  0
  1 13  1  0     0  0
  2 14  1  0     0  0
  2 31  1  0     0  0
  3 15  1  0     0  0
  3 33  1  0     0  0
  4 30  2  0     0  0
  5 32  1  0     0  0
  6  7  1  0     0  0
  6 20  1  0     0  0
  7 17  2  0     0  0
  8 16  1  0     0  0
  8 18  2  0     0  0
  9 16  2  0     0  0
  9 19  1  0     0  0
 10 17  1  0     0  0
 10 18  1  0     0  0
 11 21  1  0     0  0
 11 30  1  0     0  0
 12 34  1  0     0  0
 12 35  1  0     0  0
 12 36  1  0     0  0
 13 21  1  0     0  0
 13 23  2  0     0  0
 14 15  1  0     0  0
 14 24  2  0     0  0
 15 25  2  0     0  0
 17 26  1  0     0  0
 18 22  1  0     0  0
 19 22  2  0     0  0
 19 24  1  0     0  0
 20 26  2  0     0  0
 20 37  1  0     0  0
 21 27  2  0     0  0
 22 25  1  0     0  0
 23 28  1  0     0  0
 27 29  1  0     0  0
 28 29  2  0     0  0
 30 37  1  0     0  0
 31 39  1  0     0  0
 32 38  1  0     0  0
 34 39  1  0     0  0
 35 40  1  0     0  0
 36 41  1  0     0  0
 38 40  1  0     0  0
 38 41  1  0     0  0
M  END
> <standard_type>
pIC50

> <# Confs.>
25

> <canonical_smiles>
FC1=CC=CC=C1NC(CC2=CC(NC3=NC=NC4=C3C=C(OC)C(OCCCN5CCC(CO)CC5)=C4)=NN2)=O

> <standard_relation>
=

> <Publication_ID>
nan

> <predicted_activity_value>
7.769551078621726

> <actual_activity_value>
7.853871964321762

> <Compound>
25

> <standard_units>
nM

> hash
291960966420831775

$$$$
25_
XXILIB    08252103423D 0   0.00000     0.00000

 41 45  0     1  0            999 V2000
  -11.3244    2.5878    0.9715 F   0  0  0  0  0  1           0  0  0
    1.3660    0.0000    0.0000 O   0  0  0  0  0  2           0  0  0
   -0.2630   -0.0063    2.4178 O   0  0  0  0  0  2           0  0  0
  -11.3175    0.2954    1.4476 O   0  0  0  0  0  2           0  0  0
    8.9641    0.8514   -4.5497 O   0  0  0  0  0  2           0  0  0
   -8.2608   -1.2370    0.4008 N   0  0  0  0  0  3           0  0  0
   -7.0778   -0.9944   -0.1828 N   0  0  0  0  0  3           0  0  0
   -4.7392    0.0382   -1.6784 N   0  0  0  0  0  3           0  0  0
   -2.5336   -0.0490   -2.6155 N   0  0  0  0  0  3           0  0  0
   -5.0920    0.0976    0.6791 N   0  0  0  0  0  3           0  0  0
  -10.2028    1.2572    3.2473 N   0  0  0  0  0  3           0  0  0
    4.5273    1.9879   -2.1143 N   0  0  1  0  0  3           0  0  0
  -11.4191    3.1320    2.1938 C   0  0  0  0  0  4           0  0  0
   -0.0000    0.0000    0.0000 C   0  0  0  0  0  4           0  0  0
   -0.7802    0.0000    1.1534 C   0  0  0  0  0  4           0  0  0
   -3.8713   -0.0093   -2.6983 C   0  0  0  0  0  4           0  0  0
   -6.3664   -0.3665    0.7661 C   0  0  0  0  0  4           0  0  0
   -4.2131    0.0301   -0.4288 C   0  0  0  0  0  4           0  0  0
   -2.0085   -0.0297   -1.3839 C   0  0  0  0  0  4           0  0  0
   -8.3493   -0.7968    1.6906 C   0  0  0  0  0  4           0  0  0
  -10.8736    2.4929    3.3121 C   0  0  0  0  0  4           0  0  0
   -2.8098    0.0166   -0.2239 C   0  0  0  0  0  4           0  0  0
  -12.0789    4.3544    2.3177 C   0  0  0  0  0  4           0  0  0
   -0.6225   -0.0445   -1.2504 C   0  0  0  0  0  4           0  0  0
   -2.1711    0.0430    1.0413 C   0  0  0  0  0  4           0  0  0
   -7.1270   -0.2219    1.9568 C   0  0  0  0  0  4           0  0  0
  -10.9985    3.1040    4.5657 C   0  0  0  0  0  4           0  0  0
  -12.1982    4.9533    3.5693 C   0  0  0  0  0  4           0  0  0
  -11.6583    4.3289    4.6926 C   0  0  0  0  0  4           0  0  0
  -10.4597    0.2541    2.3289 C   0  0  0  0  0  4           0  0  0
    1.9805    1.1160    0.6443 C   0  0  0  0  0  4           0  0  0
    8.0673    1.9534   -4.6079 C   0  0  0  0  0  4           0  0  0
   -0.0381   -1.2976    2.9780 C   0  0  0  0  0  4           0  0  0
    3.2147    1.7271   -1.5168 C   0  0  0  0  0  4           0  0  0
    5.4192    0.8233   -1.9924 C   0  0  0  0  0  4           0  0  0
    4.3702    2.3772   -3.5244 C   0  0  0  0  0  4           0  0  0
   -9.5723   -0.9552    2.5150 C   0  0  0  0  0  4           0  0  0
    6.7063    1.5627   -4.0459 C   0  0  1  0  0  4           0  0  0
    3.3195    1.3960   -0.0264 C   0  0  0  0  0  4           0  0  0
    6.8027    1.1137   -2.5815 C   0  0  0  0  0  4           0  0  0
    5.7168    2.7253   -4.1605 C   0  0  0  0  0  4           0  0  0
  1 13  1  0     0  0
  2 14  1  0     0  0
  2 31  1  0     0  0
  3 15  1  0     0  0
  3 33  1  0     0  0
  4 30  2  0     0  0
  5 32  1  0     0  0
  6  7  1  0     0  0
  6 20  1  0     0  0
  7 17  2  0     0  0
  8 16  1  0     0  0
  8 18  2  0     0  0
  9 16  2  0     0  0
  9 19  1  0     0  0
 10 17  1  0     0  0
 10 18  1  0     0  0
 11 21  1  0     0  0
 11 30  1  0     0  0
 12 34  1  0     0  0
 12 35  1  0     0  0
 12 36  1  0     0  0
 13 21  1  0     0  0
 13 23  2  0     0  0
 14 15  1  0     0  0
 14 24  2  0     0  0
 15 25  2  0     0  0
 17 26  1  0     0  0
 18 22  1  0     0  0
 19 22  2  0     0  0
 19 24  1  0     0  0
 20 26  2  0     0  0
 20 37  1  0     0  0
 21 27  2  0     0  0
 22 25  1  0     0  0
 23 28  1  0     0  0
 27 29  1  0     0  0
 28 29  2  0     0  0
 30 37  1  0     0  0
 31 39  1  0     0  0
 32 38  1  0     0  0
 34 39  1  0     0  0
 35 40  1  0     0  0
 36 41  1  0     0  0
 38 40  1  0     0  0
 38 41  1  0     0  0
M  END
> <standard_type>
pIC50

> <# Confs.>
25

> <canonical_smiles>
FC1=CC=CC=C1NC(CC2=CC(NC3=NC=NC4=C3C=C(OC)C(OCCCN5CCC(CO)CC5)=C4)=NN2)=O

> <standard_relation>
=

> <Publication_ID>
nan

> <predicted_activity_value>
7.769551078621726

> <actual_activity_value>
7.853871964321762

> <Compound>
25

> <standard_units>
nM

> hash
291960966420831775

$$$$
25_
XXILIB    08252103423D 0   0.00000     0.00000

 41 45  0     1  0            999 V2000
   -8.5368   -4.8957    3.6978 F   0  0  0  0  0  1           0  0  0
    1.3660   -0.0000   -0.0000 O   0  0  0  0  0  2           0  0  0
   -0.2630   -0.0063    2.4178 O   0  0  0  0  0  2           0  0  0
   -9.9593   -3.3077    2.7703 O   0  0  0  0  0  2           0  0  0
    7.1686    0.8401    6.0970 O   0  0  0  0  0  2           0  0  0
   -8.2608   -1.2370    0.4008 N   0  0  0  0  0  3           0  0  0
   -7.0778   -0.9944   -0.1828 N   0  0  0  0  0  3           0  0  0
   -4.7392    0.0382   -1.6784 N   0  0  0  0  0  3           0  0  0
   -2.5336   -0.0490   -2.6155 N   0  0  0  0  0  3           0  0  0
   -5.0920    0.0976    0.6791 N   0  0  0  0  0  3           0  0  0
   -8.8890   -2.1649    4.4894 N   0  0  0  0  0  3           0  0  0
    4.3879    2.3692    1.9935 N   0  0  1  0  0  3           0  0  0
   -8.5158   -4.5543    4.9949 C   0  0  0  0  0  4           0  0  0
   -0.0000    0.0000    0.0000 C   0  0  0  0  0  4           0  0  0
   -0.7802    0.0000    1.1534 C   0  0  0  0  0  4           0  0  0
   -3.8713   -0.0093   -2.6983 C   0  0  0  0  0  4           0  0  0
   -6.3664   -0.3665    0.7661 C   0  0  0  0  0  4           0  0  0
   -4.2131    0.0301   -0.4288 C   0  0  0  0  0  4           0  0  0
   -2.0085   -0.0297   -1.3839 C   0  0  0  0  0  4           0  0  0
   -8.3493   -0.7968    1.6906 C   0  0  0  0  0  4           0  0  0
   -8.6887   -3.2248    5.3936 C   0  0  0  0  0  4           0  0  0
   -2.8098    0.0166   -0.2239 C   0  0  0  0  0  4           0  0  0
   -8.3152   -5.5644    5.9352 C   0  0  0  0  0  4           0  0  0
   -0.6225   -0.0445   -1.2504 C   0  0  0  0  0  4           0  0  0
   -2.1711    0.0430    1.0413 C   0  0  0  0  0  4           0  0  0
   -7.1270   -0.2219    1.9568 C   0  0  0  0  0  4           0  0  0
   -8.6597   -2.9215    6.7603 C   0  0  0  0  0  4           0  0  0
   -8.2874   -5.2519    7.2921 C   0  0  0  0  0  4           0  0  0
   -8.4597   -3.9316    7.7046 C   0  0  0  0  0  4           0  0  0
   -9.5077   -2.2711    3.2559 C   0  0  0  0  0  4           0  0  0
    1.9805    1.1160    0.6443 C   0  0  0  0  0  4           0  0  0
    6.3442    1.9689    5.8358 C   0  0  0  0  0  4           0  0  0
   -0.0381   -1.2976    2.9780 C   0  0  0  0  0  4           0  0  0
    4.0847    2.5771    0.5749 C   0  0  0  0  0  4           0  0  0
    5.2143    1.1689    2.2008 C   0  0  0  0  0  4           0  0  0
    5.0524    3.5598    2.5461 C   0  0  0  0  0  4           0  0  0
   -9.5723   -0.9552    2.5150 C   0  0  0  0  0  4           0  0  0
    6.1568    2.1560    4.3356 C   0  0  1  0  0  4           0  0  0
    3.3195    1.3960   -0.0264 C   0  0  0  0  0  4           0  0  0
    5.4948    0.9323    3.6877 C   0  0  0  0  0  4           0  0  0
    5.3204    3.4046    4.0438 C   0  0  0  0  0  4           0  0  0
  1 13  1  0     0  0
  2 14  1  0     0  0
  2 31  1  0     0  0
  3 15  1  0     0  0
  3 33  1  0     0  0
  4 30  2  0     0  0
  5 32  1  0     0  0
  6  7  1  0     0  0
  6 20  1  0     0  0
  7 17  2  0     0  0
  8 16  1  0     0  0
  8 18  2  0     0  0
  9 16  2  0     0  0
  9 19  1  0     0  0
 10 17  1  0     0  0
 10 18  1  0     0  0
 11 21  1  0     0  0
 11 30  1  0     0  0
 12 34  1  0     0  0
 12 35  1  0     0  0
 12 36  1  0     0  0
 13 21  1  0     0  0
 13 23  2  0     0  0
 14 15  1  0     0  0
 14 24  2  0     0  0
 15 25  2  0     0  0
 17 26  1  0     0  0
 18 22  1  0     0  0
 19 22  2  0     0  0
 19 24  1  0     0  0
 20 26  2  0     0  0
 20 37  1  0     0  0
 21 27  2  0     0  0
 22 25  1  0     0  0
 23 28  1  0     0  0
 27 29  1  0     0  0
 28 29  2  0     0  0
 30 37  1  0     0  0
 31 39  1  0     0  0
 32 38  1  0     0  0
 34 39  1  0     0  0
 35 40  1  0     0  0
 36 41  1  0     0  0
 38 40  1  0     0  0
 38 41  1  0     0  0
M  END
> <standard_type>
pIC50

> <# Confs.>
25

> <canonical_smiles>
FC1=CC=CC=C1NC(CC2=CC(NC3=NC=NC4=C3C=C(OC)C(OCCCN5CCC(CO)CC5)=C4)=NN2)=O

> <standard_relation>
=

> <Publication_ID>
nan

> <predicted_activity_value>
7.769551078621726

> <actual_activity_value>
7.853871964321762

> <Compound>
25

> <standard_units>
nM

> hash
291960966420831775

$$$$
25_
XXILIB    08252103423D 0   0.00000     0.00000

 41 45  0     1  0            999 V2000
  -12.9277    1.6400    2.4497 F   0  0  0  0  0  1           0  0  0
    1.3660    0.0000   -0.0000 O   0  0  0  0  0  2           0  0  0
   -0.2630   -0.0063    2.4178 O   0  0  0  0  0  2           0  0  0
  -11.3175    0.2954    1.4476 O   0  0  0  0  0  2           0  0  0
    4.5384    1.3489    7.7243 O   0  0  0  0  0  2           0  0  0
   -8.2608   -1.2370    0.4008 N   0  0  0  0  0  3           0  0  0
   -7.0778   -0.9944   -0.1828 N   0  0  0  0  0  3           0  0  0
   -4.7392    0.0382   -1.6784 N   0  0  0  0  0  3           0  0  0
   -2.5336   -0.0490   -2.6155 N   0  0  0  0  0  3           0  0  0
   -5.0920    0.0976    0.6791 N   0  0  0  0  0  3           0  0  0
  -10.2028    1.2572    3.2473 N   0  0  0  0  0  3           0  0  0
    3.9722    2.2233    2.6426 N   0  0  1  0  0  3           0  0  0
  -12.2054    2.6671    2.9216 C   0  0  0  0  0  4           0  0  0
   -0.0000    0.0000    0.0000 C   0  0  0  0  0  4           0  0  0
   -0.7802    0.0000    1.1534 C   0  0  0  0  0  4           0  0  0
   -3.8713   -0.0093   -2.6983 C   0  0  0  0  0  4           0  0  0
   -6.3664   -0.3665    0.7661 C   0  0  0  0  0  4           0  0  0
   -4.2131    0.0301   -0.4288 C   0  0  0  0  0  4           0  0  0
   -2.0085   -0.0297   -1.3839 C   0  0  0  0  0  4           0  0  0
   -8.3493   -0.7968    1.6906 C   0  0  0  0  0  4           0  0  0
  -10.8736    2.4929    3.3121 C   0  0  0  0  0  4           0  0  0
   -2.8098    0.0166   -0.2239 C   0  0  0  0  0  4           0  0  0
  -12.8218    3.9147    3.0128 C   0  0  0  0  0  4           0  0  0
   -0.6225   -0.0445   -1.2504 C   0  0  0  0  0  4           0  0  0
   -2.1711    0.0430    1.0413 C   0  0  0  0  0  4           0  0  0
   -7.1270   -0.2219    1.9568 C   0  0  0  0  0  4           0  0  0
  -10.1630    3.5978    3.7967 C   0  0  0  0  0  4           0  0  0
  -12.1063    5.0070    3.4968 C   0  0  0  0  0  4           0  0  0
  -10.7778    4.8490    3.8884 C   0  0  0  0  0  4           0  0  0
  -10.4597    0.2541    2.3289 C   0  0  0  0  0  4           0  0  0
    1.9805    1.1160    0.6443 C   0  0  0  0  0  4           0  0  0
    4.2049    2.4991    6.9578 C   0  0  0  0  0  4           0  0  0
   -0.0381   -1.2976    2.9780 C   0  0  0  0  0  4           0  0  0
    4.2759    2.1028    1.2140 C   0  0  0  0  0  4           0  0  0
    4.3078    0.9907    3.3739 C   0  0  0  0  0  4           0  0  0
    4.6850    3.3770    3.2133 C   0  0  0  0  0  4           0  0  0
   -9.5723   -0.9552    2.5150 C   0  0  0  0  0  4           0  0  0
    4.6358    2.3166    5.5081 C   0  0  1  0  0  4           0  0  0
    3.4938    0.9636    0.5563 C   0  0  0  0  0  4           0  0  0
    3.9512    1.1062    4.8589 C   0  0  0  0  0  4           0  0  0
    4.3353    3.5746    4.6891 C   0  0  0  0  0  4           0  0  0
  1 13  1  0     0  0
  2 14  1  0     0  0
  2 31  1  0     0  0
  3 15  1  0     0  0
  3 33  1  0     0  0
  4 30  2  0     0  0
  5 32  1  0     0  0
  6  7  1  0     0  0
  6 20  1  0     0  0
  7 17  2  0     0  0
  8 16  1  0     0  0
  8 18  2  0     0  0
  9 16  2  0     0  0
  9 19  1  0     0  0
 10 17  1  0     0  0
 10 18  1  0     0  0
 11 21  1  0     0  0
 11 30  1  0     0  0
 12 34  1  0     0  0
 12 35  1  0     0  0
 12 36  1  0     0  0
 13 21  1  0     0  0
 13 23  2  0     0  0
 14 15  1  0     0  0
 14 24  2  0     0  0
 15 25  2  0     0  0
 17 26  1  0     0  0
 18 22  1  0     0  0
 19 22  2  0     0  0
 19 24  1  0     0  0
 20 26  2  0     0  0
 20 37  1  0     0  0
 21 27  2  0     0  0
 22 25  1  0     0  0
 23 28  1  0     0  0
 27 29  1  0     0  0
 28 29  2  0     0  0
 30 37  1  0     0  0
 31 39  1  0     0  0
 32 38  1  0     0  0
 34 39  1  0     0  0
 35 40  1  0     0  0
 36 41  1  0     0  0
 38 40  1  0     0  0
 38 41  1  0     0  0
M  END
> <standard_type>
pIC50

> <# Confs.>
25

> <canonical_smiles>
FC1=CC=CC=C1NC(CC2=CC(NC3=NC=NC4=C3C=C(OC)C(OCCCN5CCC(CO)CC5)=C4)=NN2)=O

> <standard_relation>
=

> <Publication_ID>
nan

> <predicted_activity_value>
7.769551078621726

> <actual_activity_value>
7.853871964321762

> <Compound>
25

> <standard_units>
nM

> hash
291960966420831775

$$$$
25_
XXILIB    08252103423D 0   0.00000     0.00000

 41 45  0     1  0            999 V2000
   -8.5368   -4.8957    3.6978 F   0  0  0  0  0  1           0  0  0
    1.3660    0.0000    0.0000 O   0  0  0  0  0  2           0  0  0
   -0.2630   -0.0063    2.4178 O   0  0  0  0  0  2           0  0  0
   -9.9593   -3.3077    2.7703 O   0  0  0  0  0  2           0  0  0
    8.9641    0.8514   -4.5497 O   0  0  0  0  0  2           0  0  0
   -8.2608   -1.2370    0.4008 N   0  0  0  0  0  3           0  0  0
   -7.0778   -0.9944   -0.1828 N   0  0  0  0  0  3           0  0  0
   -4.7392    0.0382   -1.6784 N   0  0  0  0  0  3           0  0  0
   -2.5336   -0.0490   -2.6155 N   0  0  0  0  0  3           0  0  0
   -5.0920    0.0976    0.6791 N   0  0  0  0  0  3           0  0  0
   -8.8890   -2.1649    4.4894 N   0  0  0  0  0  3           0  0  0
    4.5273    1.9879   -2.1143 N   0  0  1  0  0  3           0  0  0
   -8.5158   -4.5543    4.9949 C   0  0  0  0  0  4           0  0  0
   -0.0000    0.0000    0.0000 C   0  0  0  0  0  4           0  0  0
   -0.7802    0.0000    1.1534 C   0  0  0  0  0  4           0  0  0
   -3.8713   -0.0093   -2.6983 C   0  0  0  0  0  4           0  0  0
   -6.3664   -0.3665    0.7661 C   0  0  0  0  0  4           0  0  0
   -4.2131    0.0301   -0.4288 C   0  0  0  0  0  4           0  0  0
   -2.0085   -0.0297   -1.3839 C   0  0  0  0  0  4           0  0  0
   -8.3493   -0.7968    1.6906 C   0  0  0  0  0  4           0  0  0
   -8.6887   -3.2248    5.3936 C   0  0  0  0  0  4           0  0  0
   -2.8098    0.0166   -0.2239 C   0  0  0  0  0  4           0  0  0
   -8.3152   -5.5644    5.9352 C   0  0  0  0  0  4           0  0  0
   -0.6225   -0.0445   -1.2504 C   0  0  0  0  0  4           0  0  0
   -2.1711    0.0430    1.0413 C   0  0  0  0  0  4           0  0  0
   -7.1270   -0.2219    1.9568 C   0  0  0  0  0  4           0  0  0
   -8.6597   -2.9215    6.7603 C   0  0  0  0  0  4           0  0  0
   -8.2874   -5.2519    7.2921 C   0  0  0  0  0  4           0  0  0
   -8.4597   -3.9316    7.7046 C   0  0  0  0  0  4           0  0  0
   -9.5077   -2.2711    3.2559 C   0  0  0  0  0  4           0  0  0
    1.9805    1.1160    0.6443 C   0  0  0  0  0  4           0  0  0
    8.0673    1.9534   -4.6079 C   0  0  0  0  0  4           0  0  0
   -0.0381   -1.2976    2.9780 C   0  0  0  0  0  4           0  0  0
    3.2147    1.7271   -1.5168 C   0  0  0  0  0  4           0  0  0
    5.4192    0.8233   -1.9924 C   0  0  0  0  0  4           0  0  0
    4.3702    2.3772   -3.5244 C   0  0  0  0  0  4           0  0  0
   -9.5723   -0.9552    2.5150 C   0  0  0  0  0  4           0  0  0
    6.7063    1.5627   -4.0459 C   0  0  1  0  0  4           0  0  0
    3.3195    1.3960   -0.0264 C   0  0  0  0  0  4           0  0  0
    6.8027    1.1137   -2.5815 C   0  0  0  0  0  4           0  0  0
    5.7168    2.7253   -4.1605 C   0  0  0  0  0  4           0  0  0
  1 13  1  0     0  0
  2 14  1  0     0  0
  2 31  1  0     0  0
  3 15  1  0     0  0
  3 33  1  0     0  0
  4 30  2  0     0  0
  5 32  1  0     0  0
  6  7  1  0     0  0
  6 20  1  0     0  0
  7 17  2  0     0  0
  8 16  1  0     0  0
  8 18  2  0     0  0
  9 16  2  0     0  0
  9 19  1  0     0  0
 10 17  1  0     0  0
 10 18  1  0     0  0
 11 21  1  0     0  0
 11 30  1  0     0  0
 12 34  1  0     0  0
 12 35  1  0     0  0
 12 36  1  0     0  0
 13 21  1  0     0  0
 13 23  2  0     0  0
 14 15  1  0     0  0
 14 24  2  0     0  0
 15 25  2  0     0  0
 17 26  1  0     0  0
 18 22  1  0     0  0
 19 22  2  0     0  0
 19 24  1  0     0  0
 20 26  2  0     0  0
 20 37  1  0     0  0
 21 27  2  0     0  0
 22 25  1  0     0  0
 23 28  1  0     0  0
 27 29  1  0     0  0
 28 29  2  0     0  0
 30 37  1  0     0  0
 31 39  1  0     0  0
 32 38  1  0     0  0
 34 39  1  0     0  0
 35 40  1  0     0  0
 36 41  1  0     0  0
 38 40  1  0     0  0
 38 41  1  0     0  0
M  END
> <standard_type>
pIC50

> <# Confs.>
25

> <canonical_smiles>
FC1=CC=CC=C1NC(CC2=CC(NC3=NC=NC4=C3C=C(OC)C(OCCCN5CCC(CO)CC5)=C4)=NN2)=O

> <standard_relation>
=

> <Publication_ID>
nan

> <predicted_activity_value>
7.769551078621726

> <actual_activity_value>
7.853871964321762

> <Compound>
25

> <standard_units>
nM

> hash
291960966420831775

$$$$
25_
XXILIB    08252103423D 0   0.00000     0.00000

 41 45  0     1  0            999 V2000
  -12.9277    1.6400    2.4497 F   0  0  0  0  0  1           0  0  0
    1.3660   -0.0000   -0.0000 O   0  0  0  0  0  2           0  0  0
   -0.2630   -0.0063    2.4178 O   0  0  0  0  0  2           0  0  0
  -11.3175    0.2954    1.4476 O   0  0  0  0  0  2           0  0  0
    1.4034    7.9633   -2.4385 O   0  0  0  0  0  2           0  0  0
   -8.2608   -1.2370    0.4008 N   0  0  0  0  0  3           0  0  0
   -7.0778   -0.9944   -0.1828 N   0  0  0  0  0  3           0  0  0
   -4.7392    0.0382   -1.6784 N   0  0  0  0  0  3           0  0  0
   -2.5336   -0.0490   -2.6155 N   0  0  0  0  0  3           0  0  0
   -5.0920    0.0976    0.6791 N   0  0  0  0  0  3           0  0  0
  -10.2028    1.2572    3.2473 N   0  0  0  0  0  3           0  0  0
    2.3942    2.9171   -1.7579 N   0  0  1  0  0  3           0  0  0
  -12.2054    2.6671    2.9216 C   0  0  0  0  0  4           0  0  0
   -0.0000    0.0000    0.0000 C   0  0  0  0  0  4           0  0  0
   -0.7802    0.0000    1.1534 C   0  0  0  0  0  4           0  0  0
   -3.8713   -0.0093   -2.6983 C   0  0  0  0  0  4           0  0  0
   -6.3664   -0.3665    0.7661 C   0  0  0  0  0  4           0  0  0
   -4.2131    0.0301   -0.4288 C   0  0  0  0  0  4           0  0  0
   -2.0085   -0.0297   -1.3839 C   0  0  0  0  0  4           0  0  0
   -8.3493   -0.7968    1.6906 C   0  0  0  0  0  4           0  0  0
  -10.8736    2.4929    3.3121 C   0  0  0  0  0  4           0  0  0
   -2.8098    0.0166   -0.2239 C   0  0  0  0  0  4           0  0  0
  -12.8218    3.9147    3.0128 C   0  0  0  0  0  4           0  0  0
   -0.6225   -0.0445   -1.2504 C   0  0  0  0  0  4           0  0  0
   -2.1711    0.0430    1.0413 C   0  0  0  0  0  4           0  0  0
   -7.1270   -0.2219    1.9568 C   0  0  0  0  0  4           0  0  0
  -10.1630    3.5978    3.7967 C   0  0  0  0  0  4           0  0  0
  -12.1063    5.0070    3.4968 C   0  0  0  0  0  4           0  0  0
  -10.7778    4.8490    3.8884 C   0  0  0  0  0  4           0  0  0
  -10.4597    0.2541    2.3289 C   0  0  0  0  0  4           0  0  0
    1.9805    1.1160    0.6443 C   0  0  0  0  0  4           0  0  0
    0.8968    6.7751   -3.0328 C   0  0  0  0  0  4           0  0  0
   -0.0381   -1.2976    2.9780 C   0  0  0  0  0  4           0  0  0
    3.2147    1.7271   -1.5168 C   0  0  0  0  0  4           0  0  0
    2.9519    4.1044   -1.0901 C   0  0  0  0  0  4           0  0  0
    2.2578    3.1501   -3.2042 C   0  0  0  0  0  4           0  0  0
   -9.5723   -0.9552    2.5150 C   0  0  0  0  0  4           0  0  0
    1.8568    5.6144   -2.8050 C   0  0  1  0  0  4           0  0  0
    3.3195    1.3960   -0.0264 C   0  0  0  0  0  4           0  0  0
    2.0699    5.3369   -1.3107 C   0  0  0  0  0  4           0  0  0
    1.3482    4.3451   -3.4936 C   0  0  0  0  0  4           0  0  0
  1 13  1  0     0  0
  2 14  1  0     0  0
  2 31  1  0     0  0
  3 15  1  0     0  0
  3 33  1  0     0  0
  4 30  2  0     0  0
  5 32  1  0     0  0
  6  7  1  0     0  0
  6 20  1  0     0  0
  7 17  2  0     0  0
  8 16  1  0     0  0
  8 18  2  0     0  0
  9 16  2  0     0  0
  9 19  1  0     0  0
 10 17  1  0     0  0
 10 18  1  0     0  0
 11 21  1  0     0  0
 11 30  1  0     0  0
 12 34  1  0     0  0
 12 35  1  0     0  0
 12 36  1  0     0  0
 13 21  1  0     0  0
 13 23  2  0     0  0
 14 15  1  0     0  0
 14 24  2  0     0  0
 15 25  2  0     0  0
 17 26  1  0     0  0
 18 22  1  0     0  0
 19 22  2  0     0  0
 19 24  1  0     0  0
 20 26  2  0     0  0
 20 37  1  0     0  0
 21 27  2  0     0  0
 22 25  1  0     0  0
 23 28  1  0     0  0
 27 29  1  0     0  0
 28 29  2  0     0  0
 30 37  1  0     0  0
 31 39  1  0     0  0
 32 38  1  0     0  0
 34 39  1  0     0  0
 35 40  1  0     0  0
 36 41  1  0     0  0
 38 40  1  0     0  0
 38 41  1  0     0  0
M  END
> <standard_type>
pIC50

> <# Confs.>
25

> <canonical_smiles>
FC1=CC=CC=C1NC(CC2=CC(NC3=NC=NC4=C3C=C(OC)C(OCCCN5CCC(CO)CC5)=C4)=NN2)=O

> <standard_relation>
=

> <Publication_ID>
nan

> <predicted_activity_value>
7.769551078621726

> <actual_activity_value>
7.853871964321762

> <Compound>
25

> <standard_units>
nM

> hash
291960966420831775

$$$$
25_
XXILIB    08252103423D 0   0.00000     0.00000

 41 45  0     1  0            999 V2000
  -11.3244    2.5878    0.9715 F   0  0  0  0  0  1           0  0  0
    1.3660    0.0000   -0.0000 O   0  0  0  0  0  2           0  0  0
   -0.2630   -0.0063    2.4178 O   0  0  0  0  0  2           0  0  0
  -11.3175    0.2954    1.4476 O   0  0  0  0  0  2           0  0  0
    4.5384    1.3489    7.7243 O   0  0  0  0  0  2           0  0  0
   -8.2608   -1.2370    0.4008 N   0  0  0  0  0  3           0  0  0
   -7.0778   -0.9944   -0.1828 N   0  0  0  0  0  3           0  0  0
   -4.7392    0.0382   -1.6784 N   0  0  0  0  0  3           0  0  0
   -2.5336   -0.0490   -2.6155 N   0  0  0  0  0  3           0  0  0
   -5.0920    0.0976    0.6791 N   0  0  0  0  0  3           0  0  0
  -10.2028    1.2572    3.2473 N   0  0  0  0  0  3           0  0  0
    3.9722    2.2233    2.6426 N   0  0  1  0  0  3           0  0  0
  -11.4191    3.1320    2.1938 C   0  0  0  0  0  4           0  0  0
   -0.0000    0.0000    0.0000 C   0  0  0  0  0  4           0  0  0
   -0.7802    0.0000    1.1534 C   0  0  0  0  0  4           0  0  0
   -3.8713   -0.0093   -2.6983 C   0  0  0  0  0  4           0  0  0
   -6.3664   -0.3665    0.7661 C   0  0  0  0  0  4           0  0  0
   -4.2131    0.0301   -0.4288 C   0  0  0  0  0  4           0  0  0
   -2.0085   -0.0297   -1.3839 C   0  0  0  0  0  4           0  0  0
   -8.3493   -0.7968    1.6906 C   0  0  0  0  0  4           0  0  0
  -10.8736    2.4929    3.3121 C   0  0  0  0  0  4           0  0  0
   -2.8098    0.0166   -0.2239 C   0  0  0  0  0  4           0  0  0
  -12.0789    4.3544    2.3177 C   0  0  0  0  0  4           0  0  0
   -0.6225   -0.0445   -1.2504 C   0  0  0  0  0  4           0  0  0
   -2.1711    0.0430    1.0413 C   0  0  0  0  0  4           0  0  0
   -7.1270   -0.2219    1.9568 C   0  0  0  0  0  4           0  0  0
  -10.9985    3.1040    4.5657 C   0  0  0  0  0  4           0  0  0
  -12.1982    4.9533    3.5693 C   0  0  0  0  0  4           0  0  0
  -11.6583    4.3289    4.6926 C   0  0  0  0  0  4           0  0  0
  -10.4597    0.2541    2.3289 C   0  0  0  0  0  4           0  0  0
    1.9805    1.1160    0.6443 C   0  0  0  0  0  4           0  0  0
    4.2049    2.4991    6.9578 C   0  0  0  0  0  4           0  0  0
   -0.0381   -1.2976    2.9780 C   0  0  0  0  0  4           0  0  0
    4.2759    2.1028    1.2140 C   0  0  0  0  0  4           0  0  0
    4.3078    0.9907    3.3739 C   0  0  0  0  0  4           0  0  0
    4.6850    3.3770    3.2133 C   0  0  0  0  0  4           0  0  0
   -9.5723   -0.9552    2.5150 C   0  0  0  0  0  4           0  0  0
    4.6358    2.3166    5.5081 C   0  0  1  0  0  4           0  0  0
    3.4938    0.9636    0.5563 C   0  0  0  0  0  4           0  0  0
    3.9512    1.1062    4.8589 C   0  0  0  0  0  4           0  0  0
    4.3353    3.5746    4.6891 C   0  0  0  0  0  4           0  0  0
  1 13  1  0     0  0
  2 14  1  0     0  0
  2 31  1  0     0  0
  3 15  1  0     0  0
  3 33  1  0     0  0
  4 30  2  0     0  0
  5 32  1  0     0  0
  6  7  1  0     0  0
  6 20  1  0     0  0
  7 17  2  0     0  0
  8 16  1  0     0  0
  8 18  2  0     0  0
  9 16  2  0     0  0
  9 19  1  0     0  0
 10 17  1  0     0  0
 10 18  1  0     0  0
 11 21  1  0     0  0
 11 30  1  0     0  0
 12 34  1  0     0  0
 12 35  1  0     0  0
 12 36  1  0     0  0
 13 21  1  0     0  0
 13 23  2  0     0  0
 14 15  1  0     0  0
 14 24  2  0     0  0
 15 25  2  0     0  0
 17 26  1  0     0  0
 18 22  1  0     0  0
 19 22  2  0     0  0
 19 24  1  0     0  0
 20 26  2  0     0  0
 20 37  1  0     0  0
 21 27  2  0     0  0
 22 25  1  0     0  0
 23 28  1  0     0  0
 27 29  1  0     0  0
 28 29  2  0     0  0
 30 37  1  0     0  0
 31 39  1  0     0  0
 32 38  1  0     0  0
 34 39  1  0     0  0
 35 40  1  0     0  0
 36 41  1  0     0  0
 38 40  1  0     0  0
 38 41  1  0     0  0
M  END
> <standard_type>
pIC50

> <# Confs.>
25

> <canonical_smiles>
FC1=CC=CC=C1NC(CC2=CC(NC3=NC=NC4=C3C=C(OC)C(OCCCN5CCC(CO)CC5)=C4)=NN2)=O

> <standard_relation>
=

> <Publication_ID>
nan

> <predicted_activity_value>
7.769551078621726

> <actual_activity_value>
7.853871964321762

> <Compound>
25

> <standard_units>
nM

> hash
291960966420831775

$$$$
25_
XXILIB    08252103423D 0   0.00000     0.00000

 41 45  0     1  0            999 V2000
  -11.3244    2.5878    0.9715 F   0  0  0  0  0  1           0  0  0
    1.3660   -0.0000   -0.0000 O   0  0  0  0  0  2           0  0  0
   -0.2630   -0.0063    2.4178 O   0  0  0  0  0  2           0  0  0
  -11.3175    0.2954    1.4476 O   0  0  0  0  0  2           0  0  0
    1.4034    7.9633   -2.4385 O   0  0  0  0  0  2           0  0  0
   -8.2608   -1.2370    0.4008 N   0  0  0  0  0  3           0  0  0
   -7.0778   -0.9944   -0.1828 N   0  0  0  0  0  3           0  0  0
   -4.7392    0.0382   -1.6784 N   0  0  0  0  0  3           0  0  0
   -2.5336   -0.0490   -2.6155 N   0  0  0  0  0  3           0  0  0
   -5.0920    0.0976    0.6791 N   0  0  0  0  0  3           0  0  0
  -10.2028    1.2572    3.2473 N   0  0  0  0  0  3           0  0  0
    2.3942    2.9171   -1.7579 N   0  0  1  0  0  3           0  0  0
  -11.4191    3.1320    2.1938 C   0  0  0  0  0  4           0  0  0
   -0.0000    0.0000    0.0000 C   0  0  0  0  0  4           0  0  0
   -0.7802    0.0000    1.1534 C   0  0  0  0  0  4           0  0  0
   -3.8713   -0.0093   -2.6983 C   0  0  0  0  0  4           0  0  0
   -6.3664   -0.3665    0.7661 C   0  0  0  0  0  4           0  0  0
   -4.2131    0.0301   -0.4288 C   0  0  0  0  0  4           0  0  0
   -2.0085   -0.0297   -1.3839 C   0  0  0  0  0  4           0  0  0
   -8.3493   -0.7968    1.6906 C   0  0  0  0  0  4           0  0  0
  -10.8736    2.4929    3.3121 C   0  0  0  0  0  4           0  0  0
   -2.8098    0.0166   -0.2239 C   0  0  0  0  0  4           0  0  0
  -12.0789    4.3544    2.3177 C   0  0  0  0  0  4           0  0  0
   -0.6225   -0.0445   -1.2504 C   0  0  0  0  0  4           0  0  0
   -2.1711    0.0430    1.0413 C   0  0  0  0  0  4           0  0  0
   -7.1270   -0.2219    1.9568 C   0  0  0  0  0  4           0  0  0
  -10.9985    3.1040    4.5657 C   0  0  0  0  0  4           0  0  0
  -12.1982    4.9533    3.5693 C   0  0  0  0  0  4           0  0  0
  -11.6583    4.3289    4.6926 C   0  0  0  0  0  4           0  0  0
  -10.4597    0.2541    2.3289 C   0  0  0  0  0  4           0  0  0
    1.9805    1.1160    0.6443 C   0  0  0  0  0  4           0  0  0
    0.8968    6.7751   -3.0328 C   0  0  0  0  0  4           0  0  0
   -0.0381   -1.2976    2.9780 C   0  0  0  0  0  4           0  0  0
    3.2147    1.7271   -1.5168 C   0  0  0  0  0  4           0  0  0
    2.9519    4.1044   -1.0901 C   0  0  0  0  0  4           0  0  0
    2.2578    3.1501   -3.2042 C   0  0  0  0  0  4           0  0  0
   -9.5723   -0.9552    2.5150 C   0  0  0  0  0  4           0  0  0
    1.8568    5.6144   -2.8050 C   0  0  1  0  0  4           0  0  0
    3.3195    1.3960   -0.0264 C   0  0  0  0  0  4           0  0  0
    2.0699    5.3369   -1.3107 C   0  0  0  0  0  4           0  0  0
    1.3482    4.3451   -3.4936 C   0  0  0  0  0  4           0  0  0
  1 13  1  0     0  0
  2 14  1  0     0  0
  2 31  1  0     0  0
  3 15  1  0     0  0
  3 33  1  0     0  0
  4 30  2  0     0  0
  5 32  1  0     0  0
  6  7  1  0     0  0
  6 20  1  0     0  0
  7 17  2  0     0  0
  8 16  1  0     0  0
  8 18  2  0     0  0
  9 16  2  0     0  0
  9 19  1  0     0  0
 10 17  1  0     0  0
 10 18  1  0     0  0
 11 21  1  0     0  0
 11 30  1  0     0  0
 12 34  1  0     0  0
 12 35  1  0     0  0
 12 36  1  0     0  0
 13 21  1  0     0  0
 13 23  2  0     0  0
 14 15  1  0     0  0
 14 24  2  0     0  0
 15 25  2  0     0  0
 17 26  1  0     0  0
 18 22  1  0     0  0
 19 22  2  0     0  0
 19 24  1  0     0  0
 20 26  2  0     0  0
 20 37  1  0     0  0
 21 27  2  0     0  0
 22 25  1  0     0  0
 23 28  1  0     0  0
 27 29  1  0     0  0
 28 29  2  0     0  0
 30 37  1  0     0  0
 31 39  1  0     0  0
 32 38  1  0     0  0
 34 39  1  0     0  0
 35 40  1  0     0  0
 36 41  1  0     0  0
 38 40  1  0     0  0
 38 41  1  0     0  0
M  END
> <standard_type>
pIC50

> <# Confs.>
25

> <canonical_smiles>
FC1=CC=CC=C1NC(CC2=CC(NC3=NC=NC4=C3C=C(OC)C(OCCCN5CCC(CO)CC5)=C4)=NN2)=O

> <standard_relation>
=

> <Publication_ID>
nan

> <predicted_activity_value>
7.769551078621726

> <actual_activity_value>
7.853871964321762

> <Compound>
25

> <standard_units>
nM

> hash
291960966420831775

$$$$
25_
XXILIB    08252103423D 0   0.00000     0.00000

 41 45  0     1  0            999 V2000
  -10.6347   -4.4255    4.7137 F   0  0  0  0  0  1           0  0  0
    1.3660   -0.0000   -0.0000 O   0  0  0  0  0  2           0  0  0
   -0.2630   -0.0063    2.4178 O   0  0  0  0  0  2           0  0  0
   -9.9593   -3.3077    2.7703 O   0  0  0  0  0  2           0  0  0
   10.0251   -1.7592   -1.0399 O   0  0  0  0  0  2           0  0  0
   -8.2608   -1.2370    0.4008 N   0  0  0  0  0  3           0  0  0
   -7.0778   -0.9944   -0.1828 N   0  0  0  0  0  3           0  0  0
   -4.7392    0.0382   -1.6784 N   0  0  0  0  0  3           0  0  0
   -2.5336   -0.0490   -2.6155 N   0  0  0  0  0  3           0  0  0
   -5.0920    0.0976    0.6791 N   0  0  0  0  0  3           0  0  0
   -8.8890   -2.1649    4.4894 N   0  0  0  0  0  3           0  0  0
    5.4917    0.7585   -0.9047 N   0  0  1  0  0  3           0  0  0
   -9.5472   -4.3247    5.4925 C   0  0  0  0  0  4           0  0  0
   -0.0000    0.0000    0.0000 C   0  0  0  0  0  4           0  0  0
   -0.7802    0.0000    1.1534 C   0  0  0  0  0  4           0  0  0
   -3.8713   -0.0093   -2.6983 C   0  0  0  0  0  4           0  0  0
   -6.3664   -0.3665    0.7661 C   0  0  0  0  0  4           0  0  0
   -4.2131    0.0301   -0.4288 C   0  0  0  0  0  4           0  0  0
   -2.0085   -0.0297   -1.3839 C   0  0  0  0  0  4           0  0  0
   -8.3493   -0.7968    1.6906 C   0  0  0  0  0  4           0  0  0
   -8.6887   -3.2248    5.3936 C   0  0  0  0  0  4           0  0  0
   -2.8098    0.0166   -0.2239 C   0  0  0  0  0  4           0  0  0
   -9.2964   -5.3501    6.4038 C   0  0  0  0  0  4           0  0  0
   -0.6225   -0.0445   -1.2504 C   0  0  0  0  0  4           0  0  0
   -2.1711    0.0430    1.0413 C   0  0  0  0  0  4           0  0  0
   -7.1270   -0.2219    1.9568 C   0  0  0  0  0  4           0  0  0
   -7.5677   -3.1671    6.2306 C   0  0  0  0  0  4           0  0  0
   -8.1783   -5.2832    7.2312 C   0  0  0  0  0  4           0  0  0
   -7.3145   -4.1925    7.1451 C   0  0  0  0  0  4           0  0  0
   -9.5077   -2.2711    3.2559 C   0  0  0  0  0  4           0  0  0
    1.9805    1.1160    0.6443 C   0  0  0  0  0  4           0  0  0
    9.5457   -0.5680   -1.6508 C   0  0  0  0  0  4           0  0  0
   -0.0381   -1.2976    2.9780 C   0  0  0  0  0  4           0  0  0
    4.0339    0.9051   -0.8743 C   0  0  0  0  0  4           0  0  0
    5.9266   -0.4745   -0.2284 C   0  0  0  0  0  4           0  0  0
    5.9716    0.7857   -2.2953 C   0  0  0  0  0  4           0  0  0
   -9.5723   -0.9552    2.5150 C   0  0  0  0  0  4           0  0  0
    8.0225   -0.5450   -1.6505 C   0  0  1  0  0  4           0  0  0
    3.4938    0.9636    0.5563 C   0  0  0  0  0  4           0  0  0
    7.4526   -0.6036   -0.2267 C   0  0  0  0  0  4           0  0  0
    7.4975    0.7055   -2.3606 C   0  0  0  0  0  4           0  0  0
  1 13  1  0     0  0
  2 14  1  0     0  0
  2 31  1  0     0  0
  3 15  1  0     0  0
  3 33  1  0     0  0
  4 30  2  0     0  0
  5 32  1  0     0  0
  6  7  1  0     0  0
  6 20  1  0     0  0
  7 17  2  0     0  0
  8 16  1  0     0  0
  8 18  2  0     0  0
  9 16  2  0     0  0
  9 19  1  0     0  0
 10 17  1  0     0  0
 10 18  1  0     0  0
 11 21  1  0     0  0
 11 30  1  0     0  0
 12 34  1  0     0  0
 12 35  1  0     0  0
 12 36  1  0     0  0
 13 21  1  0     0  0
 13 23  2  0     0  0
 14 15  1  0     0  0
 14 24  2  0     0  0
 15 25  2  0     0  0
 17 26  1  0     0  0
 18 22  1  0     0  0
 19 22  2  0     0  0
 19 24  1  0     0  0
 20 26  2  0     0  0
 20 37  1  0     0  0
 21 27  2  0     0  0
 22 25  1  0     0  0
 23 28  1  0     0  0
 27 29  1  0     0  0
 28 29  2  0     0  0
 30 37  1  0     0  0
 31 39  1  0     0  0
 32 38  1  0     0  0
 34 39  1  0     0  0
 35 40  1  0     0  0
 36 41  1  0     0  0
 38 40  1  0     0  0
 38 41  1  0     0  0
M  END
> <standard_type>
pIC50

> <# Confs.>
25

> <canonical_smiles>
FC1=CC=CC=C1NC(CC2=CC(NC3=NC=NC4=C3C=C(OC)C(OCCCN5CCC(CO)CC5)=C4)=NN2)=O

> <standard_relation>
=

> <Publication_ID>
nan

> <predicted_activity_value>
7.769551078621726

> <actual_activity_value>
7.853871964321762

> <Compound>
25

> <standard_units>
nM

> hash
291960966420831775

$$$$
25_
XXILIB    08252103423D 0   0.00000     0.00000

 41 45  0     1  0            999 V2000
  -10.6347   -4.4255    4.7137 F   0  0  0  0  0  1           0  0  0
    1.3660    0.0000    0.0000 O   0  0  0  0  0  2           0  0  0
   -0.2630   -0.0063    2.4178 O   0  0  0  0  0  2           0  0  0
   -9.9593   -3.3077    2.7703 O   0  0  0  0  0  2           0  0  0
    8.6028    4.8483   -3.6024 O   0  0  0  0  0  2           0  0  0
   -8.2608   -1.2370    0.4008 N   0  0  0  0  0  3           0  0  0
   -7.0778   -0.9944   -0.1828 N   0  0  0  0  0  3           0  0  0
   -4.7392    0.0382   -1.6784 N   0  0  0  0  0  3           0  0  0
   -2.5336   -0.0490   -2.6155 N   0  0  0  0  0  3           0  0  0
   -5.0920    0.0976    0.6791 N   0  0  0  0  0  3           0  0  0
   -8.8890   -2.1649    4.4894 N   0  0  0  0  0  3           0  0  0
    5.3634    2.8048   -0.1039 N   0  0  1  0  0  3           0  0  0
   -9.5472   -4.3247    5.4925 C   0  0  0  0  0  4           0  0  0
   -0.0000    0.0000    0.0000 C   0  0  0  0  0  4           0  0  0
   -0.7802    0.0000    1.1534 C   0  0  0  0  0  4           0  0  0
   -3.8713   -0.0093   -2.6983 C   0  0  0  0  0  4           0  0  0
   -6.3664   -0.3665    0.7661 C   0  0  0  0  0  4           0  0  0
   -4.2131    0.0301   -0.4288 C   0  0  0  0  0  4           0  0  0
   -2.0085   -0.0297   -1.3839 C   0  0  0  0  0  4           0  0  0
   -8.3493   -0.7968    1.6906 C   0  0  0  0  0  4           0  0  0
   -8.6887   -3.2248    5.3936 C   0  0  0  0  0  4           0  0  0
   -2.8098    0.0166   -0.2239 C   0  0  0  0  0  4           0  0  0
   -9.2964   -5.3501    6.4038 C   0  0  0  0  0  4           0  0  0
   -0.6225   -0.0445   -1.2504 C   0  0  0  0  0  4           0  0  0
   -2.1711    0.0430    1.0413 C   0  0  0  0  0  4           0  0  0
   -7.1270   -0.2219    1.9568 C   0  0  0  0  0  4           0  0  0
   -7.5677   -3.1671    6.2306 C   0  0  0  0  0  4           0  0  0
   -8.1783   -5.2832    7.2312 C   0  0  0  0  0  4           0  0  0
   -7.3145   -4.1925    7.1451 C   0  0  0  0  0  4           0  0  0
   -9.5077   -2.2711    3.2559 C   0  0  0  0  0  4           0  0  0
    1.9805    1.1160    0.6443 C   0  0  0  0  0  4           0  0  0
    8.7237    4.5291   -2.2220 C   0  0  0  0  0  4           0  0  0
   -0.0381   -1.2976    2.9780 C   0  0  0  0  0  4           0  0  0
    4.0847    2.5771    0.5749 C   0  0  0  0  0  4           0  0  0
    5.1733    3.0966   -1.5341 C   0  0  0  0  0  4           0  0  0
    6.0966    3.8962    0.5565 C   0  0  0  0  0  4           0  0  0
   -9.5723   -0.9552    2.5150 C   0  0  0  0  0  4           0  0  0
    7.3470    4.3978   -1.5831 C   0  0  1  0  0  4           0  0  0
    3.3195    1.3960   -0.0264 C   0  0  0  0  0  4           0  0  0
    6.5138    3.2938   -2.2481 C   0  0  0  0  0  4           0  0  0
    7.4685    4.1140   -0.0836 C   0  0  0  0  0  4           0  0  0
  1 13  1  0     0  0
  2 14  1  0     0  0
  2 31  1  0     0  0
  3 15  1  0     0  0
  3 33  1  0     0  0
  4 30  2  0     0  0
  5 32  1  0     0  0
  6  7  1  0     0  0
  6 20  1  0     0  0
  7 17  2  0     0  0
  8 16  1  0     0  0
  8 18  2  0     0  0
  9 16  2  0     0  0
  9 19  1  0     0  0
 10 17  1  0     0  0
 10 18  1  0     0  0
 11 21  1  0     0  0
 11 30  1  0     0  0
 12 34  1  0     0  0
 12 35  1  0     0  0
 12 36  1  0     0  0
 13 21  1  0     0  0
 13 23  2  0     0  0
 14 15  1  0     0  0
 14 24  2  0     0  0
 15 25  2  0     0  0
 17 26  1  0     0  0
 18 22  1  0     0  0
 19 22  2  0     0  0
 19 24  1  0     0  0
 20 26  2  0     0  0
 20 37  1  0     0  0
 21 27  2  0     0  0
 22 25  1  0     0  0
 23 28  1  0     0  0
 27 29  1  0     0  0
 28 29  2  0     0  0
 30 37  1  0     0  0
 31 39  1  0     0  0
 32 38  1  0     0  0
 34 39  1  0     0  0
 35 40  1  0     0  0
 36 41  1  0     0  0
 38 40  1  0     0  0
 38 41  1  0     0  0
M  END
> <standard_type>
pIC50

> <# Confs.>
25

> <canonical_smiles>
FC1=CC=CC=C1NC(CC2=CC(NC3=NC=NC4=C3C=C(OC)C(OCCCN5CCC(CO)CC5)=C4)=NN2)=O

> <standard_relation>
=

> <Publication_ID>
nan

> <predicted_activity_value>
7.769551078621726

> <actual_activity_value>
7.853871964321762

> <Compound>
25

> <standard_units>
nM

> hash
291960966420831775

$$$$
25_
XXILIB    08252103423D 0   0.00000     0.00000

 41 45  0     1  0            999 V2000
  -13.0762   -0.4247    2.5332 F   0  0  0  0  0  1           0  0  0
    1.3660   -0.0000   -0.0000 O   0  0  0  0  0  2           0  0  0
   -0.2630   -0.0063    2.4178 O   0  0  0  0  0  2           0  0  0
  -11.3151    0.6763    1.4521 O   0  0  0  0  0  2           0  0  0
    7.1686    0.8401    6.0970 O   0  0  0  0  0  2           0  0  0
   -8.0927    1.7676    0.3512 N   0  0  0  0  0  3           0  0  0
   -6.9465    1.3728   -0.2228 N   0  0  0  0  0  3           0  0  0
   -4.7392    0.0382   -1.6784 N   0  0  0  0  0  3           0  0  0
   -2.5336   -0.0490   -2.6155 N   0  0  0  0  0  3           0  0  0
   -5.0920    0.0976    0.6791 N   0  0  0  0  0  3           0  0  0
  -10.3047   -0.3843    3.2579 N   0  0  0  0  0  3           0  0  0
    4.3879    2.3692    1.9935 N   0  0  1  0  0  3           0  0  0
  -12.4774   -1.5314    2.9978 C   0  0  0  0  0  4           0  0  0
    0.0000    0.0000    0.0000 C   0  0  0  0  0  4           0  0  0
   -0.7802   -0.0000    1.1534 C   0  0  0  0  0  4           0  0  0
   -3.8713   -0.0093   -2.6983 C   0  0  0  0  0  4           0  0  0
   -6.3072    0.7024    0.7480 C   0  0  0  0  0  4           0  0  0
   -4.2131    0.0301   -0.4288 C   0  0  0  0  0  4           0  0  0
   -2.0085   -0.0297   -1.3839 C   0  0  0  0  0  4           0  0  0
   -8.2287    1.3801    1.6538 C   0  0  0  0  0  4           0  0  0
  -11.1255   -1.5234    3.3569 C   0  0  0  0  0  4           0  0  0
   -2.8098    0.0166   -0.2239 C   0  0  0  0  0  4           0  0  0
  -13.2424   -2.6919    3.1116 C   0  0  0  0  0  4           0  0  0
   -0.6225   -0.0445   -1.2504 C   0  0  0  0  0  4           0  0  0
   -2.1711    0.0430    1.0413 C   0  0  0  0  0  4           0  0  0
   -7.0766    0.6836    1.9417 C   0  0  0  0  0  4           0  0  0
  -10.5486   -2.7052    3.8378 C   0  0  0  0  0  4           0  0  0
  -12.6586   -3.8621    3.5904 C   0  0  0  0  0  4           0  0  0
  -11.3128   -3.8690    3.9535 C   0  0  0  0  0  4           0  0  0
  -10.4532    0.6311    2.3292 C   0  0  0  0  0  4           0  0  0
    1.9805    1.1160    0.6443 C   0  0  0  0  0  4           0  0  0
    6.3442    1.9689    5.8358 C   0  0  0  0  0  4           0  0  0
   -0.0381   -1.2976    2.9780 C   0  0  0  0  0  4           0  0  0
    4.0847    2.5771    0.5749 C   0  0  0  0  0  4           0  0  0
    5.2143    1.1689    2.2008 C   0  0  0  0  0  4           0  0  0
    5.0524    3.5598    2.5461 C   0  0  0  0  0  4           0  0  0
   -9.4150    1.7197    2.4769 C   0  0  0  0  0  4           0  0  0
    6.1568    2.1560    4.3356 C   0  0  1  0  0  4           0  0  0
    3.3195    1.3960   -0.0264 C   0  0  0  0  0  4           0  0  0
    5.4948    0.9323    3.6877 C   0  0  0  0  0  4           0  0  0
    5.3204    3.4046    4.0438 C   0  0  0  0  0  4           0  0  0
  1 13  1  0     0  0
  2 14  1  0     0  0
  2 31  1  0     0  0
  3 15  1  0     0  0
  3 33  1  0     0  0
  4 30  2  0     0  0
  5 32  1  0     0  0
  6  7  1  0     0  0
  6 20  1  0     0  0
  7 17  2  0     0  0
  8 16  1  0     0  0
  8 18  2  0     0  0
  9 16  2  0     0  0
  9 19  1  0     0  0
 10 17  1  0     0  0
 10 18  1  0     0  0
 11 21  1  0     0  0
 11 30  1  0     0  0
 12 34  1  0     0  0
 12 35  1  0     0  0
 12 36  1  0     0  0
 13 21  1  0     0  0
 13 23  2  0     0  0
 14 15  1  0     0  0
 14 24  2  0     0  0
 15 25  2  0     0  0
 17 26  1  0     0  0
 18 22  1  0     0  0
 19 22  2  0     0  0
 19 24  1  0     0  0
 20 26  2  0     0  0
 20 37  1  0     0  0
 21 27  2  0     0  0
 22 25  1  0     0  0
 23 28  1  0     0  0
 27 29  1  0     0  0
 28 29  2  0     0  0
 30 37  1  0     0  0
 31 39  1  0     0  0
 32 38  1  0     0  0
 34 39  1  0     0  0
 35 40  1  0     0  0
 36 41  1  0     0  0
 38 40  1  0     0  0
 38 41  1  0     0  0
M  END
> <standard_type>
pIC50

> <# Confs.>
25

> <canonical_smiles>
FC1=CC=CC=C1NC(CC2=CC(NC3=NC=NC4=C3C=C(OC)C(OCCCN5CCC(CO)CC5)=C4)=NN2)=O

> <standard_relation>
=

> <Publication_ID>
nan

> <predicted_activity_value>
7.769551078621726

> <actual_activity_value>
7.853871964321762

> <Compound>
25

> <standard_units>
nM

> hash
291960966420831775

$$$$
25_
XXILIB    08252103423D 0   0.00000     0.00000

 41 45  0     1  0            999 V2000
   -8.5368   -4.8957    3.6978 F   0  0  0  0  0  1           0  0  0
    1.3660    0.0000   -0.0000 O   0  0  0  0  0  2           0  0  0
   -0.2630   -0.0063    2.4178 O   0  0  0  0  0  2           0  0  0
   -9.9593   -3.3077    2.7703 O   0  0  0  0  0  2           0  0  0
    4.5384    1.3489    7.7243 O   0  0  0  0  0  2           0  0  0
   -8.2608   -1.2370    0.4008 N   0  0  0  0  0  3           0  0  0
   -7.0778   -0.9944   -0.1828 N   0  0  0  0  0  3           0  0  0
   -4.7392    0.0382   -1.6784 N   0  0  0  0  0  3           0  0  0
   -2.5336   -0.0490   -2.6155 N   0  0  0  0  0  3           0  0  0
   -5.0920    0.0976    0.6791 N   0  0  0  0  0  3           0  0  0
   -8.8890   -2.1649    4.4894 N   0  0  0  0  0  3           0  0  0
    3.9722    2.2233    2.6426 N   0  0  1  0  0  3           0  0  0
   -8.5158   -4.5543    4.9949 C   0  0  0  0  0  4           0  0  0
   -0.0000    0.0000    0.0000 C   0  0  0  0  0  4           0  0  0
   -0.7802    0.0000    1.1534 C   0  0  0  0  0  4           0  0  0
   -3.8713   -0.0093   -2.6983 C   0  0  0  0  0  4           0  0  0
   -6.3664   -0.3665    0.7661 C   0  0  0  0  0  4           0  0  0
   -4.2131    0.0301   -0.4288 C   0  0  0  0  0  4           0  0  0
   -2.0085   -0.0297   -1.3839 C   0  0  0  0  0  4           0  0  0
   -8.3493   -0.7968    1.6906 C   0  0  0  0  0  4           0  0  0
   -8.6887   -3.2248    5.3936 C   0  0  0  0  0  4           0  0  0
   -2.8098    0.0166   -0.2239 C   0  0  0  0  0  4           0  0  0
   -8.3152   -5.5644    5.9352 C   0  0  0  0  0  4           0  0  0
   -0.6225   -0.0445   -1.2504 C   0  0  0  0  0  4           0  0  0
   -2.1711    0.0430    1.0413 C   0  0  0  0  0  4           0  0  0
   -7.1270   -0.2219    1.9568 C   0  0  0  0  0  4           0  0  0
   -8.6597   -2.9215    6.7603 C   0  0  0  0  0  4           0  0  0
   -8.2874   -5.2519    7.2921 C   0  0  0  0  0  4           0  0  0
   -8.4597   -3.9316    7.7046 C   0  0  0  0  0  4           0  0  0
   -9.5077   -2.2711    3.2559 C   0  0  0  0  0  4           0  0  0
    1.9805    1.1160    0.6443 C   0  0  0  0  0  4           0  0  0
    4.2049    2.4991    6.9578 C   0  0  0  0  0  4           0  0  0
   -0.0381   -1.2976    2.9780 C   0  0  0  0  0  4           0  0  0
    4.2759    2.1028    1.2140 C   0  0  0  0  0  4           0  0  0
    4.3078    0.9907    3.3739 C   0  0  0  0  0  4           0  0  0
    4.6850    3.3770    3.2133 C   0  0  0  0  0  4           0  0  0
   -9.5723   -0.9552    2.5150 C   0  0  0  0  0  4           0  0  0
    4.6358    2.3166    5.5081 C   0  0  1  0  0  4           0  0  0
    3.4938    0.9636    0.5563 C   0  0  0  0  0  4           0  0  0
    3.9512    1.1062    4.8589 C   0  0  0  0  0  4           0  0  0
    4.3353    3.5746    4.6891 C   0  0  0  0  0  4           0  0  0
  1 13  1  0     0  0
  2 14  1  0     0  0
  2 31  1  0     0  0
  3 15  1  0     0  0
  3 33  1  0     0  0
  4 30  2  0     0  0
  5 32  1  0     0  0
  6  7  1  0     0  0
  6 20  1  0     0  0
  7 17  2  0     0  0
  8 16  1  0     0  0
  8 18  2  0     0  0
  9 16  2  0     0  0
  9 19  1  0     0  0
 10 17  1  0     0  0
 10 18  1  0     0  0
 11 21  1  0     0  0
 11 30  1  0     0  0
 12 34  1  0     0  0
 12 35  1  0     0  0
 12 36  1  0     0  0
 13 21  1  0     0  0
 13 23  2  0     0  0
 14 15  1  0     0  0
 14 24  2  0     0  0
 15 25  2  0     0  0
 17 26  1  0     0  0
 18 22  1  0     0  0
 19 22  2  0     0  0
 19 24  1  0     0  0
 20 26  2  0     0  0
 20 37  1  0     0  0
 21 27  2  0     0  0
 22 25  1  0     0  0
 23 28  1  0     0  0
 27 29  1  0     0  0
 28 29  2  0     0  0
 30 37  1  0     0  0
 31 39  1  0     0  0
 32 38  1  0     0  0
 34 39  1  0     0  0
 35 40  1  0     0  0
 36 41  1  0     0  0
 38 40  1  0     0  0
 38 41  1  0     0  0
M  END
> <standard_type>
pIC50

> <# Confs.>
25

> <canonical_smiles>
FC1=CC=CC=C1NC(CC2=CC(NC3=NC=NC4=C3C=C(OC)C(OCCCN5CCC(CO)CC5)=C4)=NN2)=O

> <standard_relation>
=

> <Publication_ID>
nan

> <predicted_activity_value>
7.769551078621726

> <actual_activity_value>
7.853871964321762

> <Compound>
25

> <standard_units>
nM

> hash
291960966420831775

$$$$
25_
XXILIB    08252103423D 0   0.00000     0.00000

 41 45  0     1  0            999 V2000
   -7.8414    5.5097    3.5566 F   0  0  0  0  0  1           0  0  0
    1.3660   -0.0000   -0.0000 O   0  0  0  0  0  2           0  0  0
   -0.2630   -0.0063    2.4178 O   0  0  0  0  0  2           0  0  0
   -9.4916    4.1090    2.6638 O   0  0  0  0  0  2           0  0  0
    7.1686    0.8401    6.0970 O   0  0  0  0  0  2           0  0  0
   -8.0927    1.7676    0.3512 N   0  0  0  0  0  3           0  0  0
   -6.9465    1.3728   -0.2228 N   0  0  0  0  0  3           0  0  0
   -4.7392    0.0382   -1.6784 N   0  0  0  0  0  3           0  0  0
   -2.5336   -0.0490   -2.6155 N   0  0  0  0  0  3           0  0  0
   -5.0920    0.0976    0.6791 N   0  0  0  0  0  3           0  0  0
   -8.5933    2.8850    4.4250 N   0  0  0  0  0  3           0  0  0
    4.3879    2.3692    1.9935 N   0  0  1  0  0  3           0  0  0
   -7.8936    5.2136    4.8639 C   0  0  0  0  0  4           0  0  0
    0.0000    0.0000    0.0000 C   0  0  0  0  0  4           0  0  0
   -0.7802   -0.0000    1.1534 C   0  0  0  0  0  4           0  0  0
   -3.8713   -0.0093   -2.6983 C   0  0  0  0  0  4           0  0  0
   -6.3072    0.7024    0.7480 C   0  0  0  0  0  4           0  0  0
   -4.2131    0.0301   -0.4288 C   0  0  0  0  0  4           0  0  0
   -2.0085   -0.0297   -1.3839 C   0  0  0  0  0  4           0  0  0
   -8.2287    1.3801    1.6538 C   0  0  0  0  0  4           0  0  0
   -8.2572    3.9352    5.2998 C   0  0  0  0  0  4           0  0  0
   -2.8098    0.0166   -0.2239 C   0  0  0  0  0  4           0  0  0
   -7.5755    6.2187    5.7767 C   0  0  0  0  0  4           0  0  0
   -0.6225   -0.0445   -1.2504 C   0  0  0  0  0  4           0  0  0
   -2.1711    0.0430    1.0413 C   0  0  0  0  0  4           0  0  0
   -7.0766    0.6836    1.9417 C   0  0  0  0  0  4           0  0  0
   -8.2949    3.6773    6.6756 C   0  0  0  0  0  4           0  0  0
   -7.6168    5.9519    7.1429 C   0  0  0  0  0  4           0  0  0
   -7.9760    4.6822    7.5923 C   0  0  0  0  0  4           0  0  0
   -9.1752    3.0369    3.1784 C   0  0  0  0  0  4           0  0  0
    1.9805    1.1160    0.6443 C   0  0  0  0  0  4           0  0  0
    6.3442    1.9689    5.8358 C   0  0  0  0  0  4           0  0  0
   -0.0381   -1.2976    2.9780 C   0  0  0  0  0  4           0  0  0
    4.0847    2.5771    0.5749 C   0  0  0  0  0  4           0  0  0
    5.2143    1.1689    2.2008 C   0  0  0  0  0  4           0  0  0
    5.0524    3.5598    2.5461 C   0  0  0  0  0  4           0  0  0
   -9.4150    1.7197    2.4769 C   0  0  0  0  0  4           0  0  0
    6.1568    2.1560    4.3356 C   0  0  1  0  0  4           0  0  0
    3.3195    1.3960   -0.0264 C   0  0  0  0  0  4           0  0  0
    5.4948    0.9323    3.6877 C   0  0  0  0  0  4           0  0  0
    5.3204    3.4046    4.0438 C   0  0  0  0  0  4           0  0  0
  1 13  1  0     0  0
  2 14  1  0     0  0
  2 31  1  0     0  0
  3 15  1  0     0  0
  3 33  1  0     0  0
  4 30  2  0     0  0
  5 32  1  0     0  0
  6  7  1  0     0  0
  6 20  1  0     0  0
  7 17  2  0     0  0
  8 16  1  0     0  0
  8 18  2  0     0  0
  9 16  2  0     0  0
  9 19  1  0     0  0
 10 17  1  0     0  0
 10 18  1  0     0  0
 11 21  1  0     0  0
 11 30  1  0     0  0
 12 34  1  0     0  0
 12 35  1  0     0  0
 12 36  1  0     0  0
 13 21  1  0     0  0
 13 23  2  0     0  0
 14 15  1  0     0  0
 14 24  2  0     0  0
 15 25  2  0     0  0
 17 26  1  0     0  0
 18 22  1  0     0  0
 19 22  2  0     0  0
 19 24  1  0     0  0
 20 26  2  0     0  0
 20 37  1  0     0  0
 21 27  2  0     0  0
 22 25  1  0     0  0
 23 28  1  0     0  0
 27 29  1  0     0  0
 28 29  2  0     0  0
 30 37  1  0     0  0
 31 39  1  0     0  0
 32 38  1  0     0  0
 34 39  1  0     0  0
 35 40  1  0     0  0
 36 41  1  0     0  0
 38 40  1  0     0  0
 38 41  1  0     0  0
M  END
> <standard_type>
pIC50

> <# Confs.>
25

> <canonical_smiles>
FC1=CC=CC=C1NC(CC2=CC(NC3=NC=NC4=C3C=C(OC)C(OCCCN5CCC(CO)CC5)=C4)=NN2)=O

> <standard_relation>
=

> <Publication_ID>
nan

> <predicted_activity_value>
7.769551078621726

> <actual_activity_value>
7.853871964321762

> <Compound>
25

> <standard_units>
nM

> hash
291960966420831775

$$$$
25_
XXILIB    08252103423D 0   0.00000     0.00000

 41 45  0     1  0            999 V2000
  -10.6347   -4.4255    4.7137 F   0  0  0  0  0  1           0  0  0
    1.3660    0.0000    0.0000 O   0  0  0  0  0  2           0  0  0
   -0.2630   -0.0063    2.4178 O   0  0  0  0  0  2           0  0  0
   -9.9593   -3.3077    2.7703 O   0  0  0  0  0  2           0  0  0
   10.4580    2.2666   -0.9765 O   0  0  0  0  0  2           0  0  0
   -8.2608   -1.2370    0.4008 N   0  0  0  0  0  3           0  0  0
   -7.0778   -0.9944   -0.1828 N   0  0  0  0  0  3           0  0  0
   -4.7392    0.0382   -1.6784 N   0  0  0  0  0  3           0  0  0
   -2.5336   -0.0490   -2.6155 N   0  0  0  0  0  3           0  0  0
   -5.0920    0.0976    0.6791 N   0  0  0  0  0  3           0  0  0
   -8.8890   -2.1649    4.4894 N   0  0  0  0  0  3           0  0  0
    5.5768    0.5474   -0.6204 N   0  0  1  0  0  3           0  0  0
   -9.5472   -4.3247    5.4925 C   0  0  0  0  0  4           0  0  0
   -0.0000    0.0000    0.0000 C   0  0  0  0  0  4           0  0  0
   -0.7802    0.0000    1.1534 C   0  0  0  0  0  4           0  0  0
   -3.8713   -0.0093   -2.6983 C   0  0  0  0  0  4           0  0  0
   -6.3664   -0.3665    0.7661 C   0  0  0  0  0  4           0  0  0
   -4.2131    0.0301   -0.4288 C   0  0  0  0  0  4           0  0  0
   -2.0085   -0.0297   -1.3839 C   0  0  0  0  0  4           0  0  0
   -8.3493   -0.7968    1.6906 C   0  0  0  0  0  4           0  0  0
   -8.6887   -3.2248    5.3936 C   0  0  0  0  0  4           0  0  0
   -2.8098    0.0166   -0.2239 C   0  0  0  0  0  4           0  0  0
   -9.2964   -5.3501    6.4038 C   0  0  0  0  0  4           0  0  0
   -0.6225   -0.0445   -1.2504 C   0  0  0  0  0  4           0  0  0
   -2.1711    0.0430    1.0413 C   0  0  0  0  0  4           0  0  0
   -7.1270   -0.2219    1.9568 C   0  0  0  0  0  4           0  0  0
   -7.5677   -3.1671    6.2306 C   0  0  0  0  0  4           0  0  0
   -8.1783   -5.2832    7.2312 C   0  0  0  0  0  4           0  0  0
   -7.3145   -4.1925    7.1451 C   0  0  0  0  0  4           0  0  0
   -9.5077   -2.2711    3.2559 C   0  0  0  0  0  4           0  0  0
    1.9805    1.1160    0.6443 C   0  0  0  0  0  4           0  0  0
    9.7573    1.1751   -1.5590 C   0  0  0  0  0  4           0  0  0
   -0.0381   -1.2976    2.9780 C   0  0  0  0  0  4           0  0  0
    4.3067    0.2284    0.0375 C   0  0  0  0  0  4           0  0  0
    6.2359    1.7049    0.0062 C   0  0  0  0  0  4           0  0  0
    6.4621   -0.6276   -0.6026 C   0  0  0  0  0  4           0  0  0
   -9.5723   -0.9552    2.5150 C   0  0  0  0  0  4           0  0  0
    8.4996    0.8615   -0.7586 C   0  0  1  0  0  4           0  0  0
    3.3195    1.3960   -0.0264 C   0  0  0  0  0  4           0  0  0
    7.5425    2.0602   -0.7095 C   0  0  0  0  0  4           0  0  0
    7.7710   -0.3512   -1.3439 C   0  0  0  0  0  4           0  0  0
  1 13  1  0     0  0
  2 14  1  0     0  0
  2 31  1  0     0  0
  3 15  1  0     0  0
  3 33  1  0     0  0
  4 30  2  0     0  0
  5 32  1  0     0  0
  6  7  1  0     0  0
  6 20  1  0     0  0
  7 17  2  0     0  0
  8 16  1  0     0  0
  8 18  2  0     0  0
  9 16  2  0     0  0
  9 19  1  0     0  0
 10 17  1  0     0  0
 10 18  1  0     0  0
 11 21  1  0     0  0
 11 30  1  0     0  0
 12 34  1  0     0  0
 12 35  1  0     0  0
 12 36  1  0     0  0
 13 21  1  0     0  0
 13 23  2  0     0  0
 14 15  1  0     0  0
 14 24  2  0     0  0
 15 25  2  0     0  0
 17 26  1  0     0  0
 18 22  1  0     0  0
 19 22  2  0     0  0
 19 24  1  0     0  0
 20 26  2  0     0  0
 20 37  1  0     0  0
 21 27  2  0     0  0
 22 25  1  0     0  0
 23 28  1  0     0  0
 27 29  1  0     0  0
 28 29  2  0     0  0
 30 37  1  0     0  0
 31 39  1  0     0  0
 32 38  1  0     0  0
 34 39  1  0     0  0
 35 40  1  0     0  0
 36 41  1  0     0  0
 38 40  1  0     0  0
 38 41  1  0     0  0
M  END
> <standard_type>
pIC50

> <# Confs.>
25

> <canonical_smiles>
FC1=CC=CC=C1NC(CC2=CC(NC3=NC=NC4=C3C=C(OC)C(OCCCN5CCC(CO)CC5)=C4)=NN2)=O

> <standard_relation>
=

> <Publication_ID>
nan

> <predicted_activity_value>
7.769551078621726

> <actual_activity_value>
7.853871964321762

> <Compound>
25

> <standard_units>
nM

> hash
291960966420831775

$$$$
25_
XXILIB    08252103423D 0   0.00000     0.00000

 41 45  0     1  0            999 V2000
   -8.5368   -4.8957    3.6978 F   0  0  0  0  0  1           0  0  0
    1.3660   -0.0000   -0.0000 O   0  0  0  0  0  2           0  0  0
   -0.2630   -0.0063    2.4178 O   0  0  0  0  0  2           0  0  0
   -9.9593   -3.3077    2.7703 O   0  0  0  0  0  2           0  0  0
    1.4034    7.9633   -2.4385 O   0  0  0  0  0  2           0  0  0
   -8.2608   -1.2370    0.4008 N   0  0  0  0  0  3           0  0  0
   -7.0778   -0.9944   -0.1828 N   0  0  0  0  0  3           0  0  0
   -4.7392    0.0382   -1.6784 N   0  0  0  0  0  3           0  0  0
   -2.5336   -0.0490   -2.6155 N   0  0  0  0  0  3           0  0  0
   -5.0920    0.0976    0.6791 N   0  0  0  0  0  3           0  0  0
   -8.8890   -2.1649    4.4894 N   0  0  0  0  0  3           0  0  0
    2.3942    2.9171   -1.7579 N   0  0  1  0  0  3           0  0  0
   -8.5158   -4.5543    4.9949 C   0  0  0  0  0  4           0  0  0
   -0.0000    0.0000    0.0000 C   0  0  0  0  0  4           0  0  0
   -0.7802    0.0000    1.1534 C   0  0  0  0  0  4           0  0  0
   -3.8713   -0.0093   -2.6983 C   0  0  0  0  0  4           0  0  0
   -6.3664   -0.3665    0.7661 C   0  0  0  0  0  4           0  0  0
   -4.2131    0.0301   -0.4288 C   0  0  0  0  0  4           0  0  0
   -2.0085   -0.0297   -1.3839 C   0  0  0  0  0  4           0  0  0
   -8.3493   -0.7968    1.6906 C   0  0  0  0  0  4           0  0  0
   -8.6887   -3.2248    5.3936 C   0  0  0  0  0  4           0  0  0
   -2.8098    0.0166   -0.2239 C   0  0  0  0  0  4           0  0  0
   -8.3152   -5.5644    5.9352 C   0  0  0  0  0  4           0  0  0
   -0.6225   -0.0445   -1.2504 C   0  0  0  0  0  4           0  0  0
   -2.1711    0.0430    1.0413 C   0  0  0  0  0  4           0  0  0
   -7.1270   -0.2219    1.9568 C   0  0  0  0  0  4           0  0  0
   -8.6597   -2.9215    6.7603 C   0  0  0  0  0  4           0  0  0
   -8.2874   -5.2519    7.2921 C   0  0  0  0  0  4           0  0  0
   -8.4597   -3.9316    7.7046 C   0  0  0  0  0  4           0  0  0
   -9.5077   -2.2711    3.2559 C   0  0  0  0  0  4           0  0  0
    1.9805    1.1160    0.6443 C   0  0  0  0  0  4           0  0  0
    0.8968    6.7751   -3.0328 C   0  0  0  0  0  4           0  0  0
   -0.0381   -1.2976    2.9780 C   0  0  0  0  0  4           0  0  0
    3.2147    1.7271   -1.5168 C   0  0  0  0  0  4           0  0  0
    2.9519    4.1044   -1.0901 C   0  0  0  0  0  4           0  0  0
    2.2578    3.1501   -3.2042 C   0  0  0  0  0  4           0  0  0
   -9.5723   -0.9552    2.5150 C   0  0  0  0  0  4           0  0  0
    1.8568    5.6144   -2.8050 C   0  0  1  0  0  4           0  0  0
    3.3195    1.3960   -0.0264 C   0  0  0  0  0  4           0  0  0
    2.0699    5.3369   -1.3107 C   0  0  0  0  0  4           0  0  0
    1.3482    4.3451   -3.4936 C   0  0  0  0  0  4           0  0  0
  1 13  1  0     0  0
  2 14  1  0     0  0
  2 31  1  0     0  0
  3 15  1  0     0  0
  3 33  1  0     0  0
  4 30  2  0     0  0
  5 32  1  0     0  0
  6  7  1  0     0  0
  6 20  1  0     0  0
  7 17  2  0     0  0
  8 16  1  0     0  0
  8 18  2  0     0  0
  9 16  2  0     0  0
  9 19  1  0     0  0
 10 17  1  0     0  0
 10 18  1  0     0  0
 11 21  1  0     0  0
 11 30  1  0     0  0
 12 34  1  0     0  0
 12 35  1  0     0  0
 12 36  1  0     0  0
 13 21  1  0     0  0
 13 23  2  0     0  0
 14 15  1  0     0  0
 14 24  2  0     0  0
 15 25  2  0     0  0
 17 26  1  0     0  0
 18 22  1  0     0  0
 19 22  2  0     0  0
 19 24  1  0     0  0
 20 26  2  0     0  0
 20 37  1  0     0  0
 21 27  2  0     0  0
 22 25  1  0     0  0
 23 28  1  0     0  0
 27 29  1  0     0  0
 28 29  2  0     0  0
 30 37  1  0     0  0
 31 39  1  0     0  0
 32 38  1  0     0  0
 34 39  1  0     0  0
 35 40  1  0     0  0
 36 41  1  0     0  0
 38 40  1  0     0  0
 38 41  1  0     0  0
M  END
> <standard_type>
pIC50

> <# Confs.>
25

> <canonical_smiles>
FC1=CC=CC=C1NC(CC2=CC(NC3=NC=NC4=C3C=C(OC)C(OCCCN5CCC(CO)CC5)=C4)=NN2)=O

> <standard_relation>
=

> <Publication_ID>
nan

> <predicted_activity_value>
7.769551078621726

> <actual_activity_value>
7.853871964321762

> <Compound>
25

> <standard_units>
nM

> hash
291960966420831775

$$$$
25_
XXILIB    08252103423D 0   0.00000     0.00000

 41 45  0     1  0            999 V2000
  -10.0004    5.3778    4.5444 F   0  0  0  0  0  1           0  0  0
    1.3660   -0.0000   -0.0000 O   0  0  0  0  0  2           0  0  0
   -0.2630   -0.0063    2.4178 O   0  0  0  0  0  2           0  0  0
   -9.4916    4.1090    2.6638 O   0  0  0  0  0  2           0  0  0
    7.1686    0.8401    6.0970 O   0  0  0  0  0  2           0  0  0
   -8.0927    1.7676    0.3512 N   0  0  0  0  0  3           0  0  0
   -6.9465    1.3728   -0.2228 N   0  0  0  0  0  3           0  0  0
   -4.7392    0.0382   -1.6784 N   0  0  0  0  0  3           0  0  0
   -2.5336   -0.0490   -2.6155 N   0  0  0  0  0  3           0  0  0
   -5.0920    0.0976    0.6791 N   0  0  0  0  0  3           0  0  0
   -8.5933    2.8850    4.4250 N   0  0  0  0  0  3           0  0  0
    4.3879    2.3692    1.9935 N   0  0  1  0  0  3           0  0  0
   -8.9533    5.1474    5.3505 C   0  0  0  0  0  4           0  0  0
    0.0000    0.0000    0.0000 C   0  0  0  0  0  4           0  0  0
   -0.7802   -0.0000    1.1534 C   0  0  0  0  0  4           0  0  0
   -3.8713   -0.0093   -2.6983 C   0  0  0  0  0  4           0  0  0
   -6.3072    0.7024    0.7480 C   0  0  0  0  0  4           0  0  0
   -4.2131    0.0301   -0.4288 C   0  0  0  0  0  4           0  0  0
   -2.0085   -0.0297   -1.3839 C   0  0  0  0  0  4           0  0  0
   -8.2287    1.3801    1.6538 C   0  0  0  0  0  4           0  0  0
   -8.2572    3.9352    5.2998 C   0  0  0  0  0  4           0  0  0
   -2.8098    0.0166   -0.2239 C   0  0  0  0  0  4           0  0  0
   -8.5791    6.1521    6.2423 C   0  0  0  0  0  4           0  0  0
   -0.6225   -0.0445   -1.2504 C   0  0  0  0  0  4           0  0  0
   -2.1711    0.0430    1.0413 C   0  0  0  0  0  4           0  0  0
   -7.0766    0.6836    1.9417 C   0  0  0  0  0  4           0  0  0
   -7.1702    3.7453    6.1619 C   0  0  0  0  0  4           0  0  0
   -7.4969    5.9528    7.0958 C   0  0  0  0  0  4           0  0  0
   -6.7927    4.7505    7.0558 C   0  0  0  0  0  4           0  0  0
   -9.1752    3.0369    3.1784 C   0  0  0  0  0  4           0  0  0
    1.9805    1.1160    0.6443 C   0  0  0  0  0  4           0  0  0
    6.3442    1.9689    5.8358 C   0  0  0  0  0  4           0  0  0
   -0.0381   -1.2976    2.9780 C   0  0  0  0  0  4           0  0  0
    4.0847    2.5771    0.5749 C   0  0  0  0  0  4           0  0  0
    5.2143    1.1689    2.2008 C   0  0  0  0  0  4           0  0  0
    5.0524    3.5598    2.5461 C   0  0  0  0  0  4           0  0  0
   -9.4150    1.7197    2.4769 C   0  0  0  0  0  4           0  0  0
    6.1568    2.1560    4.3356 C   0  0  1  0  0  4           0  0  0
    3.3195    1.3960   -0.0264 C   0  0  0  0  0  4           0  0  0
    5.4948    0.9323    3.6877 C   0  0  0  0  0  4           0  0  0
    5.3204    3.4046    4.0438 C   0  0  0  0  0  4           0  0  0
  1 13  1  0     0  0
  2 14  1  0     0  0
  2 31  1  0     0  0
  3 15  1  0     0  0
  3 33  1  0     0  0
  4 30  2  0     0  0
  5 32  1  0     0  0
  6  7  1  0     0  0
  6 20  1  0     0  0
  7 17  2  0     0  0
  8 16  1  0     0  0
  8 18  2  0     0  0
  9 16  2  0     0  0
  9 19  1  0     0  0
 10 17  1  0     0  0
 10 18  1  0     0  0
 11 21  1  0     0  0
 11 30  1  0     0  0
 12 34  1  0     0  0
 12 35  1  0     0  0
 12 36  1  0     0  0
 13 21  1  0     0  0
 13 23  2  0     0  0
 14 15  1  0     0  0
 14 24  2  0     0  0
 15 25  2  0     0  0
 17 26  1  0     0  0
 18 22  1  0     0  0
 19 22  2  0     0  0
 19 24  1  0     0  0
 20 26  2  0     0  0
 20 37  1  0     0  0
 21 27  2  0     0  0
 22 25  1  0     0  0
 23 28  1  0     0  0
 27 29  1  0     0  0
 28 29  2  0     0  0
 30 37  1  0     0  0
 31 39  1  0     0  0
 32 38  1  0     0  0
 34 39  1  0     0  0
 35 40  1  0     0  0
 36 41  1  0     0  0
 38 40  1  0     0  0
 38 41  1  0     0  0
M  END
> <standard_type>
pIC50

> <# Confs.>
25

> <canonical_smiles>
FC1=CC=CC=C1NC(CC2=CC(NC3=NC=NC4=C3C=C(OC)C(OCCCN5CCC(CO)CC5)=C4)=NN2)=O

> <standard_relation>
=

> <Publication_ID>
nan

> <predicted_activity_value>
7.769551078621726

> <actual_activity_value>
7.853871964321762

> <Compound>
25

> <standard_units>
nM

> hash
291960966420831775

$$$$
25_
XXILIB    08252103423D 0   0.00000     0.00000

 41 45  0     1  0            999 V2000
  -10.6347   -4.4255    4.7137 F   0  0  0  0  0  1           0  0  0
    1.3660   -0.0000    0.0000 O   0  0  0  0  0  2           0  0  0
   -0.2630   -0.0063    2.4178 O   0  0  0  0  0  2           0  0  0
   -9.9593   -3.3077    2.7703 O   0  0  0  0  0  2           0  0  0
    2.7079   -8.9508    0.3567 O   0  0  0  0  0  2           0  0  0
   -8.2608   -1.2370    0.4008 N   0  0  0  0  0  3           0  0  0
   -7.0778   -0.9944   -0.1828 N   0  0  0  0  0  3           0  0  0
   -4.7392    0.0382   -1.6784 N   0  0  0  0  0  3           0  0  0
   -2.5336   -0.0490   -2.6155 N   0  0  0  0  0  3           0  0  0
   -5.0920    0.0976    0.6791 N   0  0  0  0  0  3           0  0  0
   -8.8890   -2.1649    4.4894 N   0  0  0  0  0  3           0  0  0
    3.3256   -3.8272    0.4814 N   0  0  1  0  0  3           0  0  0
   -9.5472   -4.3247    5.4925 C   0  0  0  0  0  4           0  0  0
   -0.0000    0.0000    0.0000 C   0  0  0  0  0  4           0  0  0
   -0.7802    0.0000    1.1534 C   0  0  0  0  0  4           0  0  0
   -3.8713   -0.0093   -2.6983 C   0  0  0  0  0  4           0  0  0
   -6.3664   -0.3665    0.7661 C   0  0  0  0  0  4           0  0  0
   -4.2131    0.0301   -0.4288 C   0  0  0  0  0  4           0  0  0
   -2.0085   -0.0297   -1.3839 C   0  0  0  0  0  4           0  0  0
   -8.3493   -0.7968    1.6906 C   0  0  0  0  0  4           0  0  0
   -8.6887   -3.2248    5.3936 C   0  0  0  0  0  4           0  0  0
   -2.8098    0.0166   -0.2239 C   0  0  0  0  0  4           0  0  0
   -9.2964   -5.3501    6.4038 C   0  0  0  0  0  4           0  0  0
   -0.6225   -0.0445   -1.2504 C   0  0  0  0  0  4           0  0  0
   -2.1711    0.0430    1.0413 C   0  0  0  0  0  4           0  0  0
   -7.1270   -0.2219    1.9568 C   0  0  0  0  0  4           0  0  0
   -7.5677   -3.1671    6.2306 C   0  0  0  0  0  4           0  0  0
   -8.1783   -5.2832    7.2312 C   0  0  0  0  0  4           0  0  0
   -7.3145   -4.1925    7.1451 C   0  0  0  0  0  4           0  0  0
   -9.5077   -2.2711    3.2559 C   0  0  0  0  0  4           0  0  0
    1.9805   -1.1160    0.6443 C   0  0  0  0  0  4           0  0  0
    2.0332   -7.8855   -0.3004 C   0  0  0  0  0  4           0  0  0
   -0.0263    1.2793    2.9860 C   0  0  0  0  0  4           0  0  0
    4.0847   -2.5771    0.5749 C   0  0  0  0  0  4           0  0  0
    3.0240   -4.1748   -0.9168 C   0  0  0  0  0  4           0  0  0
    4.0647   -4.9155    1.1401 C   0  0  0  0  0  4           0  0  0
   -9.5723   -0.9552    2.5150 C   0  0  0  0  0  4           0  0  0
    2.8966   -6.6304   -0.3048 C   0  0  1  0  0  4           0  0  0
    3.3195   -1.3960   -0.0264 C   0  0  0  0  0  4           0  0  0
    2.1959   -5.4599   -1.0079 C   0  0  0  0  0  4           0  0  0
    3.2683   -6.2211    1.1228 C   0  0  0  0  0  4           0  0  0
  1 13  1  0     0  0
  2 14  1  0     0  0
  2 31  1  0     0  0
  3 15  1  0     0  0
  3 33  1  0     0  0
  4 30  2  0     0  0
  5 32  1  0     0  0
  6  7  1  0     0  0
  6 20  1  0     0  0
  7 17  2  0     0  0
  8 16  1  0     0  0
  8 18  2  0     0  0
  9 16  2  0     0  0
  9 19  1  0     0  0
 10 17  1  0     0  0
 10 18  1  0     0  0
 11 21  1  0     0  0
 11 30  1  0     0  0
 12 34  1  0     0  0
 12 35  1  0     0  0
 12 36  1  0     0  0
 13 21  1  0     0  0
 13 23  2  0     0  0
 14 15  1  0     0  0
 14 24  2  0     0  0
 15 25  2  0     0  0
 17 26  1  0     0  0
 18 22  1  0     0  0
 19 22  2  0     0  0
 19 24  1  0     0  0
 20 26  2  0     0  0
 20 37  1  0     0  0
 21 27  2  0     0  0
 22 25  1  0     0  0
 23 28  1  0     0  0
 27 29  1  0     0  0
 28 29  2  0     0  0
 30 37  1  0     0  0
 31 39  1  0     0  0
 32 38  1  0     0  0
 34 39  1  0     0  0
 35 40  1  0     0  0
 36 41  1  0     0  0
 38 40  1  0     0  0
 38 41  1  0     0  0
M  END
> <standard_type>
pIC50

> <# Confs.>
25

> <canonical_smiles>
FC1=CC=CC=C1NC(CC2=CC(NC3=NC=NC4=C3C=C(OC)C(OCCCN5CCC(CO)CC5)=C4)=NN2)=O

> <standard_relation>
=

> <Publication_ID>
nan

> <predicted_activity_value>
7.769551078621726

> <actual_activity_value>
7.853871964321762

> <Compound>
25

> <standard_units>
nM

> hash
291960966420831775

$$$$
25_
XXILIB    08252103423D 0   0.00000     0.00000

 41 45  0     1  0            999 V2000
  -10.6347   -4.4255    4.7137 F   0  0  0  0  0  1           0  0  0
    1.3660    0.0000    0.0000 O   0  0  0  0  0  2           0  0  0
   -0.2630   -0.0063    2.4178 O   0  0  0  0  0  2           0  0  0
   -9.9593   -3.3077    2.7703 O   0  0  0  0  0  2           0  0  0
    1.7393    2.7332    7.9961 O   0  0  0  0  0  2           0  0  0
   -8.2608   -1.2370    0.4008 N   0  0  0  0  0  3           0  0  0
   -7.0778   -0.9944   -0.1828 N   0  0  0  0  0  3           0  0  0
   -4.7392    0.0382   -1.6784 N   0  0  0  0  0  3           0  0  0
   -2.5336   -0.0490   -2.6155 N   0  0  0  0  0  3           0  0  0
   -5.0920    0.0976    0.6791 N   0  0  0  0  0  3           0  0  0
   -8.8890   -2.1649    4.4894 N   0  0  0  0  0  3           0  0  0
    3.3256    2.3305    3.0737 N   0  0  1  0  0  3           0  0  0
   -9.5472   -4.3247    5.4925 C   0  0  0  0  0  4           0  0  0
   -0.0000    0.0000    0.0000 C   0  0  0  0  0  4           0  0  0
   -0.7802    0.0000    1.1534 C   0  0  0  0  0  4           0  0  0
   -3.8713   -0.0093   -2.6983 C   0  0  0  0  0  4           0  0  0
   -6.3664   -0.3665    0.7661 C   0  0  0  0  0  4           0  0  0
   -4.2131    0.0301   -0.4288 C   0  0  0  0  0  4           0  0  0
   -2.0085   -0.0297   -1.3839 C   0  0  0  0  0  4           0  0  0
   -8.3493   -0.7968    1.6906 C   0  0  0  0  0  4           0  0  0
   -8.6887   -3.2248    5.3936 C   0  0  0  0  0  4           0  0  0
   -2.8098    0.0166   -0.2239 C   0  0  0  0  0  4           0  0  0
   -9.2964   -5.3501    6.4038 C   0  0  0  0  0  4           0  0  0
   -0.6225   -0.0445   -1.2504 C   0  0  0  0  0  4           0  0  0
   -2.1711    0.0430    1.0413 C   0  0  0  0  0  4           0  0  0
   -7.1270   -0.2219    1.9568 C   0  0  0  0  0  4           0  0  0
   -7.5677   -3.1671    6.2306 C   0  0  0  0  0  4           0  0  0
   -8.1783   -5.2832    7.2312 C   0  0  0  0  0  4           0  0  0
   -7.3145   -4.1925    7.1451 C   0  0  0  0  0  4           0  0  0
   -9.5077   -2.2711    3.2559 C   0  0  0  0  0  4           0  0  0
    1.9805    1.1160    0.6443 C   0  0  0  0  0  4           0  0  0
    2.0332    3.6826    6.9792 C   0  0  0  0  0  4           0  0  0
   -0.0381   -1.2976    2.9780 C   0  0  0  0  0  4           0  0  0
    4.0847    1.7864    1.9444 C   0  0  0  0  0  4           0  0  0
    3.0240    1.2935    4.0739 C   0  0  0  0  0  4           0  0  0
    4.0647    3.4451    3.6869 C   0  0  0  0  0  4           0  0  0
   -9.5723   -0.9552    2.5150 C   0  0  0  0  0  4           0  0  0
    2.8966    3.0512    5.8945 C   0  0  1  0  0  4           0  0  0
    3.3195    0.6752    1.2222 C   0  0  0  0  0  4           0  0  0
    2.1959    1.8571    5.2324 C   0  0  0  0  0  4           0  0  0
    3.2683    4.0829    4.8262 C   0  0  0  0  0  4           0  0  0
  1 13  1  0     0  0
  2 14  1  0     0  0
  2 31  1  0     0  0
  3 15  1  0     0  0
  3 33  1  0     0  0
  4 30  2  0     0  0
  5 32  1  0     0  0
  6  7  1  0     0  0
  6 20  1  0     0  0
  7 17  2  0     0  0
  8 16  1  0     0  0
  8 18  2  0     0  0
  9 16  2  0     0  0
  9 19  1  0     0  0
 10 17  1  0     0  0
 10 18  1  0     0  0
 11 21  1  0     0  0
 11 30  1  0     0  0
 12 34  1  0     0  0
 12 35  1  0     0  0
 12 36  1  0     0  0
 13 21  1  0     0  0
 13 23  2  0     0  0
 14 15  1  0     0  0
 14 24  2  0     0  0
 15 25  2  0     0  0
 17 26  1  0     0  0
 18 22  1  0     0  0
 19 22  2  0     0  0
 19 24  1  0     0  0
 20 26  2  0     0  0
 20 37  1  0     0  0
 21 27  2  0     0  0
 22 25  1  0     0  0
 23 28  1  0     0  0
 27 29  1  0     0  0
 28 29  2  0     0  0
 30 37  1  0     0  0
 31 39  1  0     0  0
 32 38  1  0     0  0
 34 39  1  0     0  0
 35 40  1  0     0  0
 36 41  1  0     0  0
 38 40  1  0     0  0
 38 41  1  0     0  0
M  END
> <standard_type>
pIC50

> <# Confs.>
25

> <canonical_smiles>
FC1=CC=CC=C1NC(CC2=CC(NC3=NC=NC4=C3C=C(OC)C(OCCCN5CCC(CO)CC5)=C4)=NN2)=O

> <standard_relation>
=

> <Publication_ID>
nan

> <predicted_activity_value>
7.769551078621726

> <actual_activity_value>
7.853871964321762

> <Compound>
25

> <standard_units>
nM

> hash
291960966420831775

$$$$
25_
XXILIB    08252103423D 0   0.00000     0.00000

 41 45  0     1  0            999 V2000
   -7.8414    5.5097    3.5566 F   0  0  0  0  0  1           0  0  0
    1.3660    0.0000    0.0000 O   0  0  0  0  0  2           0  0  0
   -0.2630   -0.0063    2.4178 O   0  0  0  0  0  2           0  0  0
   -9.4916    4.1090    2.6638 O   0  0  0  0  0  2           0  0  0
    8.9641    0.8514   -4.5497 O   0  0  0  0  0  2           0  0  0
   -8.0927    1.7676    0.3512 N   0  0  0  0  0  3           0  0  0
   -6.9465    1.3728   -0.2228 N   0  0  0  0  0  3           0  0  0
   -4.7392    0.0382   -1.6784 N   0  0  0  0  0  3           0  0  0
   -2.5336   -0.0490   -2.6155 N   0  0  0  0  0  3           0  0  0
   -5.0920    0.0976    0.6791 N   0  0  0  0  0  3           0  0  0
   -8.5933    2.8850    4.4250 N   0  0  0  0  0  3           0  0  0
    4.5273    1.9879   -2.1143 N   0  0  1  0  0  3           0  0  0
   -7.8936    5.2136    4.8639 C   0  0  0  0  0  4           0  0  0
    0.0000    0.0000    0.0000 C   0  0  0  0  0  4           0  0  0
   -0.7802   -0.0000    1.1534 C   0  0  0  0  0  4           0  0  0
   -3.8713   -0.0093   -2.6983 C   0  0  0  0  0  4           0  0  0
   -6.3072    0.7024    0.7480 C   0  0  0  0  0  4           0  0  0
   -4.2131    0.0301   -0.4288 C   0  0  0  0  0  4           0  0  0
   -2.0085   -0.0297   -1.3839 C   0  0  0  0  0  4           0  0  0
   -8.2287    1.3801    1.6538 C   0  0  0  0  0  4           0  0  0
   -8.2572    3.9352    5.2998 C   0  0  0  0  0  4           0  0  0
   -2.8098    0.0166   -0.2239 C   0  0  0  0  0  4           0  0  0
   -7.5755    6.2187    5.7767 C   0  0  0  0  0  4           0  0  0
   -0.6225   -0.0445   -1.2504 C   0  0  0  0  0  4           0  0  0
   -2.1711    0.0430    1.0413 C   0  0  0  0  0  4           0  0  0
   -7.0766    0.6836    1.9417 C   0  0  0  0  0  4           0  0  0
   -8.2949    3.6773    6.6756 C   0  0  0  0  0  4           0  0  0
   -7.6168    5.9519    7.1429 C   0  0  0  0  0  4           0  0  0
   -7.9760    4.6822    7.5923 C   0  0  0  0  0  4           0  0  0
   -9.1752    3.0369    3.1784 C   0  0  0  0  0  4           0  0  0
    1.9805    1.1160    0.6443 C   0  0  0  0  0  4           0  0  0
    8.0673    1.9534   -4.6079 C   0  0  0  0  0  4           0  0  0
   -0.0381   -1.2976    2.9780 C   0  0  0  0  0  4           0  0  0
    3.2147    1.7271   -1.5168 C   0  0  0  0  0  4           0  0  0
    5.4192    0.8233   -1.9924 C   0  0  0  0  0  4           0  0  0
    4.3702    2.3772   -3.5244 C   0  0  0  0  0  4           0  0  0
   -9.4150    1.7197    2.4769 C   0  0  0  0  0  4           0  0  0
    6.7063    1.5627   -4.0459 C   0  0  1  0  0  4           0  0  0
    3.3195    1.3960   -0.0264 C   0  0  0  0  0  4           0  0  0
    6.8027    1.1137   -2.5815 C   0  0  0  0  0  4           0  0  0
    5.7168    2.7253   -4.1605 C   0  0  0  0  0  4           0  0  0
  1 13  1  0     0  0
  2 14  1  0     0  0
  2 31  1  0     0  0
  3 15  1  0     0  0
  3 33  1  0     0  0
  4 30  2  0     0  0
  5 32  1  0     0  0
  6  7  1  0     0  0
  6 20  1  0     0  0
  7 17  2  0     0  0
  8 16  1  0     0  0
  8 18  2  0     0  0
  9 16  2  0     0  0
  9 19  1  0     0  0
 10 17  1  0     0  0
 10 18  1  0     0  0
 11 21  1  0     0  0
 11 30  1  0     0  0
 12 34  1  0     0  0
 12 35  1  0     0  0
 12 36  1  0     0  0
 13 21  1  0     0  0
 13 23  2  0     0  0
 14 15  1  0     0  0
 14 24  2  0     0  0
 15 25  2  0     0  0
 17 26  1  0     0  0
 18 22  1  0     0  0
 19 22  2  0     0  0
 19 24  1  0     0  0
 20 26  2  0     0  0
 20 37  1  0     0  0
 21 27  2  0     0  0
 22 25  1  0     0  0
 23 28  1  0     0  0
 27 29  1  0     0  0
 28 29  2  0     0  0
 30 37  1  0     0  0
 31 39  1  0     0  0
 32 38  1  0     0  0
 34 39  1  0     0  0
 35 40  1  0     0  0
 36 41  1  0     0  0
 38 40  1  0     0  0
 38 41  1  0     0  0
M  END
> <standard_type>
pIC50

> <# Confs.>
25

> <canonical_smiles>
FC1=CC=CC=C1NC(CC2=CC(NC3=NC=NC4=C3C=C(OC)C(OCCCN5CCC(CO)CC5)=C4)=NN2)=O

> <standard_relation>
=

> <Publication_ID>
nan

> <predicted_activity_value>
7.769551078621726

> <actual_activity_value>
7.853871964321762

> <Compound>
25

> <standard_units>
nM

> hash
291960966420831775

$$$$
33_
XXILIB    08252103423D 0   0.00000     0.00000

 37 41  0     1  0            999 V2000
   -7.2560    0.7795    2.2322 S   0  0  0  0  0  2           0  0  0
    1.3657   -0.0000    0.0000 O   0  0  0  0  0  2           0  0  0
   -0.2566    0.0031    2.4241 O   0  0  0  0  0  2           0  0  0
  -10.5611    2.7628    1.7810 O   0  0  0  0  0  2           0  0  0
    3.3498    6.6391   -0.2333 O   0  0  0  0  0  2           0  0  0
   -4.7448    0.0963   -1.6573 N   0  0  0  0  0  3           0  0  0
   -2.5447   -0.0063   -2.6044 N   0  0  0  0  0  3           0  0  0
   -5.0790    0.1419    0.7070 N   0  0  0  0  0  3           0  0  0
   -9.6652    1.6297    3.5770 N   0  0  0  0  0  3           0  0  0
    3.4513    3.8955    0.5501 N   0  0  2  0  0  3           0  0  0
   -6.2840    0.7579    0.8129 C   0  0  0  0  0  4           0  0  0
   -8.4832    1.7187    1.4960 C   0  0  0  0  0  4           0  0  0
    0.0000    0.0000    0.0000 C   0  0  0  0  0  4           0  0  0
   -0.7720    0.0000    1.1589 C   0  0  0  0  0  4           0  0  0
   -3.8819    0.0497   -2.6817 C   0  0  0  0  0  4           0  0  0
   -4.2141    0.0704   -0.4091 C   0  0  0  0  0  4           0  0  0
   -2.0139   -0.0056   -1.3751 C   0  0  0  0  0  4           0  0  0
  -10.6915    1.8641    4.5113 C   0  0  0  0  0  4           0  0  0
   -2.8092    0.0380   -0.2112 C   0  0  0  0  0  4           0  0  0
   -6.9088    1.4591   -0.2021 C   0  0  0  0  0  4           0  0  0
   -8.1642    2.0101    0.1860 C   0  0  0  0  0  4           0  0  0
   -0.6278   -0.0336   -1.2481 C   0  0  0  0  0  4           0  0  0
   -2.1635    0.0488    1.0513 C   0  0  0  0  0  4           0  0  0
  -11.8355    2.6072    4.1973 C   0  0  0  0  0  4           0  0  0
  -10.5492    1.3263    5.7958 C   0  0  0  0  0  4           0  0  0
  -12.8275    2.8030    5.1607 C   0  0  0  0  0  4           0  0  0
  -11.5432    1.5247    6.7552 C   0  0  0  0  0  4           0  0  0
  -12.6823    2.2614    6.4374 C   0  0  0  0  0  4           0  0  0
   -9.6522    2.0886    2.2664 C   0  0  0  0  0  4           0  0  0
    1.9816    1.1157    0.6442 C   0  0  0  0  0  4           0  0  0
    2.5112    5.6725   -0.8656 C   0  0  0  0  0  4           0  0  0
    3.5942    6.2824    1.1267 C   0  0  0  0  0  4           0  0  0
   -0.0239   -1.2843    2.9900 C   0  0  0  0  0  4           0  0  0
    3.1733    4.2987   -0.8383 C   0  0  0  0  0  4           0  0  0
    4.2799    4.9206    1.2071 C   0  0  0  0  0  4           0  0  0
    4.0898    2.5778    0.5742 C   0  0  0  0  0  4           0  0  0
    3.3203    1.3942   -0.0275 C   0  0  0  0  0  4           0  0  0
  1 11  1  0     0  0
  1 12  1  0     0  0
  2 13  1  0     0  0
  2 30  1  0     0  0
  3 14  1  0     0  0
  3 33  1  0     0  0
  4 29  2  0     0  0
  5 31  1  0     0  0
  5 32  1  0     0  0
  6 15  1  0     0  0
  6 16  2  0     0  0
  7 15  2  0     0  0
  7 17  1  0     0  0
  8 11  1  0     0  0
  8 16  1  0     0  0
  9 18  1  0     0  0
  9 29  1  0     0  0
 10 34  1  0     0  0
 10 35  1  0     0  0
 10 36  1  0     0  0
 11 20  2  0     0  0
 12 21  2  0     0  0
 12 29  1  0     0  0
 13 14  1  0     0  0
 13 22  2  0     0  0
 14 23  2  0     0  0
 16 19  1  0     0  0
 17 19  2  0     0  0
 17 22  1  0     0  0
 18 24  2  0     0  0
 18 25  1  0     0  0
 19 23  1  0     0  0
 20 21  1  0     0  0
 24 26  1  0     0  0
 25 27  2  0     0  0
 26 28  2  0     0  0
 27 28  1  0     0  0
 30 37  1  0     0  0
 31 34  1  0     0  0
 32 35  1  0     0  0
 36 37  1  0     0  0
M  END
> <standard_type>
pIC50

> <# Confs.>
25

> <canonical_smiles>
O=C(C(S1)=CC=C1NC2=NC=NC3=C2C=C(OC)C(OCCCN4CCOCC4)=C3)NC5=CC=CC=C5

> <standard_relation>
=

> <Publication_ID>
nan

> <predicted_activity_value>
7.301029995663981

> <actual_activity_value>
7.2441251443275085

> <Compound>
33

> <standard_units>
nM

> hash
7577093909629082646

$$$$
33_
XXILIB    08252103423D 0   0.00000     0.00000

 37 41  0     1  0            999 V2000
   -7.2560    0.7795    2.2322 S   0  0  0  0  0  2           0  0  0
    1.3657   -0.0000    0.0000 O   0  0  0  0  0  2           0  0  0
   -0.2566    0.0031    2.4241 O   0  0  0  0  0  2           0  0  0
  -10.5611    2.7628    1.7810 O   0  0  0  0  0  2           0  0  0
    6.3876    2.4996    4.0967 O   0  0  0  0  0  2           0  0  0
   -4.7448    0.0963   -1.6573 N   0  0  0  0  0  3           0  0  0
   -2.5447   -0.0063   -2.6044 N   0  0  0  0  0  3           0  0  0
   -5.0790    0.1419    0.7070 N   0  0  0  0  0  3           0  0  0
   -9.6652    1.6297    3.5770 N   0  0  0  0  0  3           0  0  0
    4.4619    2.5070    1.9889 N   0  0  2  0  0  3           0  0  0
   -6.2840    0.7579    0.8129 C   0  0  0  0  0  4           0  0  0
   -8.4832    1.7187    1.4960 C   0  0  0  0  0  4           0  0  0
    0.0000    0.0000    0.0000 C   0  0  0  0  0  4           0  0  0
   -0.7720    0.0000    1.1589 C   0  0  0  0  0  4           0  0  0
   -3.8819    0.0497   -2.6817 C   0  0  0  0  0  4           0  0  0
   -4.2141    0.0704   -0.4091 C   0  0  0  0  0  4           0  0  0
   -2.0139   -0.0056   -1.3751 C   0  0  0  0  0  4           0  0  0
  -10.6915    1.8641    4.5113 C   0  0  0  0  0  4           0  0  0
   -2.8092    0.0380   -0.2112 C   0  0  0  0  0  4           0  0  0
   -6.9088    1.4591   -0.2021 C   0  0  0  0  0  4           0  0  0
   -8.1642    2.0101    0.1860 C   0  0  0  0  0  4           0  0  0
   -0.6278   -0.0336   -1.2481 C   0  0  0  0  0  4           0  0  0
   -2.1635    0.0488    1.0513 C   0  0  0  0  0  4           0  0  0
  -11.8355    2.6072    4.1973 C   0  0  0  0  0  4           0  0  0
  -10.5492    1.3263    5.7958 C   0  0  0  0  0  4           0  0  0
  -12.8275    2.8030    5.1607 C   0  0  0  0  0  4           0  0  0
  -11.5432    1.5247    6.7552 C   0  0  0  0  0  4           0  0  0
  -12.6823    2.2614    6.4374 C   0  0  0  0  0  4           0  0  0
   -9.6522    2.0886    2.2664 C   0  0  0  0  0  4           0  0  0
    1.9816    1.1157    0.6442 C   0  0  0  0  0  4           0  0  0
    5.5803    3.6517    3.8556 C   0  0  0  0  0  4           0  0  0
    5.6799    1.3077    3.7575 C   0  0  0  0  0  4           0  0  0
   -0.0239   -1.2843    2.9900 C   0  0  0  0  0  4           0  0  0
    5.1890    3.7250    2.3832 C   0  0  0  0  0  4           0  0  0
    5.2853    1.3218    2.2826 C   0  0  0  0  0  4           0  0  0
    4.0898    2.5778    0.5742 C   0  0  0  0  0  4           0  0  0
    3.3203    1.3942   -0.0275 C   0  0  0  0  0  4           0  0  0
  1 11  1  0     0  0
  1 12  1  0     0  0
  2 13  1  0     0  0
  2 30  1  0     0  0
  3 14  1  0     0  0
  3 33  1  0     0  0
  4 29  2  0     0  0
  5 31  1  0     0  0
  5 32  1  0     0  0
  6 15  1  0     0  0
  6 16  2  0     0  0
  7 15  2  0     0  0
  7 17  1  0     0  0
  8 11  1  0     0  0
  8 16  1  0     0  0
  9 18  1  0     0  0
  9 29  1  0     0  0
 10 34  1  0     0  0
 10 35  1  0     0  0
 10 36  1  0     0  0
 11 20  2  0     0  0
 12 21  2  0     0  0
 12 29  1  0     0  0
 13 14  1  0     0  0
 13 22  2  0     0  0
 14 23  2  0     0  0
 16 19  1  0     0  0
 17 19  2  0     0  0
 17 22  1  0     0  0
 18 24  2  0     0  0
 18 25  1  0     0  0
 19 23  1  0     0  0
 20 21  1  0     0  0
 24 26  1  0     0  0
 25 27  2  0     0  0
 26 28  2  0     0  0
 27 28  1  0     0  0
 30 37  1  0     0  0
 31 34  1  0     0  0
 32 35  1  0     0  0
 36 37  1  0     0  0
M  END
> <standard_type>
pIC50

> <# Confs.>
25

> <canonical_smiles>
O=C(C(S1)=CC=C1NC2=NC=NC3=C2C=C(OC)C(OCCCN4CCOCC4)=C3)NC5=CC=CC=C5

> <standard_relation>
=

> <Publication_ID>
nan

> <predicted_activity_value>
7.301029995663981

> <actual_activity_value>
7.2441251443275085

> <Compound>
33

> <standard_units>
nM

> hash
7577093909629082646

$$$$
33_
XXILIB    08252103423D 0   0.00000     0.00000

 37 41  0     1  0            999 V2000
   -7.2560    0.7795    2.2322 S   0  0  0  0  0  2           0  0  0
    1.3657   -0.0000   -0.0000 O   0  0  0  0  0  2           0  0  0
   -0.2566    0.0031    2.4241 O   0  0  0  0  0  2           0  0  0
  -10.5611    2.7628    1.7810 O   0  0  0  0  0  2           0  0  0
    3.3677   -6.6483   -0.2023 O   0  0  0  0  0  2           0  0  0
   -4.7448    0.0963   -1.6573 N   0  0  0  0  0  3           0  0  0
   -2.5447   -0.0063   -2.6044 N   0  0  0  0  0  3           0  0  0
   -5.0790    0.1419    0.7070 N   0  0  0  0  0  3           0  0  0
   -9.6652    1.6297    3.5770 N   0  0  0  0  0  3           0  0  0
    3.4513   -3.8955    0.5501 N   0  0  2  0  0  3           0  0  0
   -6.2840    0.7579    0.8129 C   0  0  0  0  0  4           0  0  0
   -8.4832    1.7187    1.4960 C   0  0  0  0  0  4           0  0  0
    0.0000    0.0000    0.0000 C   0  0  0  0  0  4           0  0  0
   -0.7720    0.0000    1.1589 C   0  0  0  0  0  4           0  0  0
   -3.8819    0.0497   -2.6817 C   0  0  0  0  0  4           0  0  0
   -4.2141    0.0704   -0.4091 C   0  0  0  0  0  4           0  0  0
   -2.0139   -0.0056   -1.3751 C   0  0  0  0  0  4           0  0  0
  -10.6915    1.8641    4.5113 C   0  0  0  0  0  4           0  0  0
   -2.8092    0.0380   -0.2112 C   0  0  0  0  0  4           0  0  0
   -6.9088    1.4591   -0.2021 C   0  0  0  0  0  4           0  0  0
   -8.1642    2.0101    0.1860 C   0  0  0  0  0  4           0  0  0
   -0.6278   -0.0336   -1.2481 C   0  0  0  0  0  4           0  0  0
   -2.1635    0.0488    1.0513 C   0  0  0  0  0  4           0  0  0
  -11.8355    2.6072    4.1973 C   0  0  0  0  0  4           0  0  0
  -10.5492    1.3263    5.7958 C   0  0  0  0  0  4           0  0  0
  -12.8275    2.8030    5.1607 C   0  0  0  0  0  4           0  0  0
  -11.5432    1.5247    6.7552 C   0  0  0  0  0  4           0  0  0
  -12.6823    2.2614    6.4374 C   0  0  0  0  0  4           0  0  0
   -9.6522    2.0886    2.2664 C   0  0  0  0  0  4           0  0  0
    1.9816   -1.1157    0.6442 C   0  0  0  0  0  4           0  0  0
    3.6729   -6.2721    1.1403 C   0  0  0  0  0  4           0  0  0
    2.4782   -5.7063   -0.8004 C   0  0  0  0  0  4           0  0  0
   -0.0299    1.2934    2.9860 C   0  0  0  0  0  4           0  0  0
    4.3349   -4.8983    1.1675 C   0  0  0  0  0  4           0  0  0
    3.1066   -4.3150   -0.8189 C   0  0  0  0  0  4           0  0  0
    4.0898   -2.5778    0.5742 C   0  0  0  0  0  4           0  0  0
    3.3203   -1.3942   -0.0275 C   0  0  0  0  0  4           0  0  0
  1 11  1  0     0  0
  1 12  1  0     0  0
  2 13  1  0     0  0
  2 30  1  0     0  0
  3 14  1  0     0  0
  3 33  1  0     0  0
  4 29  2  0     0  0
  5 31  1  0     0  0
  5 32  1  0     0  0
  6 15  1  0     0  0
  6 16  2  0     0  0
  7 15  2  0     0  0
  7 17  1  0     0  0
  8 11  1  0     0  0
  8 16  1  0     0  0
  9 18  1  0     0  0
  9 29  1  0     0  0
 10 34  1  0     0  0
 10 35  1  0     0  0
 10 36  1  0     0  0
 11 20  2  0     0  0
 12 21  2  0     0  0
 12 29  1  0     0  0
 13 14  1  0     0  0
 13 22  2  0     0  0
 14 23  2  0     0  0
 16 19  1  0     0  0
 17 19  2  0     0  0
 17 22  1  0     0  0
 18 24  2  0     0  0
 18 25  1  0     0  0
 19 23  1  0     0  0
 20 21  1  0     0  0
 24 26  1  0     0  0
 25 27  2  0     0  0
 26 28  2  0     0  0
 27 28  1  0     0  0
 30 37  1  0     0  0
 31 34  1  0     0  0
 32 35  1  0     0  0
 36 37  1  0     0  0
M  END
> <standard_type>
pIC50

> <# Confs.>
25

> <canonical_smiles>
O=C(C(S1)=CC=C1NC2=NC=NC3=C2C=C(OC)C(OCCCN4CCOCC4)=C3)NC5=CC=CC=C5

> <standard_relation>
=

> <Publication_ID>
nan

> <predicted_activity_value>
7.301029995663981

> <actual_activity_value>
7.2441251443275085

> <Compound>
33

> <standard_units>
nM

> hash
7577093909629082646

$$$$
33_
XXILIB    08252103423D 0   0.00000     0.00000

 37 41  0     1  0            999 V2000
   -7.2560    0.7795    2.2322 S   0  0  0  0  0  2           0  0  0
    1.3657   -0.0000   -0.0000 O   0  0  0  0  0  2           0  0  0
   -0.2566    0.0031    2.4241 O   0  0  0  0  0  2           0  0  0
  -10.5611    2.7628    1.7810 O   0  0  0  0  0  2           0  0  0
    6.3897   -2.4627    4.0942 O   0  0  0  0  0  2           0  0  0
   -4.7448    0.0963   -1.6573 N   0  0  0  0  0  3           0  0  0
   -2.5447   -0.0063   -2.6044 N   0  0  0  0  0  3           0  0  0
   -5.0790    0.1419    0.7070 N   0  0  0  0  0  3           0  0  0
   -9.6652    1.6297    3.5770 N   0  0  0  0  0  3           0  0  0
    4.4619   -2.5070    1.9889 N   0  0  2  0  0  3           0  0  0
   -6.2840    0.7579    0.8129 C   0  0  0  0  0  4           0  0  0
   -8.4832    1.7187    1.4960 C   0  0  0  0  0  4           0  0  0
    0.0000    0.0000    0.0000 C   0  0  0  0  0  4           0  0  0
   -0.7720    0.0000    1.1589 C   0  0  0  0  0  4           0  0  0
   -3.8819    0.0497   -2.6817 C   0  0  0  0  0  4           0  0  0
   -4.2141    0.0704   -0.4091 C   0  0  0  0  0  4           0  0  0
   -2.0139   -0.0056   -1.3751 C   0  0  0  0  0  4           0  0  0
  -10.6915    1.8641    4.5113 C   0  0  0  0  0  4           0  0  0
   -2.8092    0.0380   -0.2112 C   0  0  0  0  0  4           0  0  0
   -6.9088    1.4591   -0.2021 C   0  0  0  0  0  4           0  0  0
   -8.1642    2.0101    0.1860 C   0  0  0  0  0  4           0  0  0
   -0.6278   -0.0336   -1.2481 C   0  0  0  0  0  4           0  0  0
   -2.1635    0.0488    1.0513 C   0  0  0  0  0  4           0  0  0
  -11.8355    2.6072    4.1973 C   0  0  0  0  0  4           0  0  0
  -10.5492    1.3263    5.7958 C   0  0  0  0  0  4           0  0  0
  -12.8275    2.8030    5.1607 C   0  0  0  0  0  4           0  0  0
  -11.5432    1.5247    6.7552 C   0  0  0  0  0  4           0  0  0
  -12.6823    2.2614    6.4374 C   0  0  0  0  0  4           0  0  0
   -9.6522    2.0886    2.2664 C   0  0  0  0  0  4           0  0  0
    1.9816   -1.1157    0.6442 C   0  0  0  0  0  4           0  0  0
    5.7183   -1.2665    3.7000 C   0  0  0  0  0  4           0  0  0
    5.5472   -3.5992    3.9070 C   0  0  0  0  0  4           0  0  0
   -0.0299    1.2934    2.9860 C   0  0  0  0  0  4           0  0  0
    5.3270   -1.3399    2.2276 C   0  0  0  0  0  4           0  0  0
    5.1458   -3.7309    2.4397 C   0  0  0  0  0  4           0  0  0
    4.0898   -2.5778    0.5742 C   0  0  0  0  0  4           0  0  0
    3.3203   -1.3942   -0.0275 C   0  0  0  0  0  4           0  0  0
  1 11  1  0     0  0
  1 12  1  0     0  0
  2 13  1  0     0  0
  2 30  1  0     0  0
  3 14  1  0     0  0
  3 33  1  0     0  0
  4 29  2  0     0  0
  5 31  1  0     0  0
  5 32  1  0     0  0
  6 15  1  0     0  0
  6 16  2  0     0  0
  7 15  2  0     0  0
  7 17  1  0     0  0
  8 11  1  0     0  0
  8 16  1  0     0  0
  9 18  1  0     0  0
  9 29  1  0     0  0
 10 34  1  0     0  0
 10 35  1  0     0  0
 10 36  1  0     0  0
 11 20  2  0     0  0
 12 21  2  0     0  0
 12 29  1  0     0  0
 13 14  1  0     0  0
 13 22  2  0     0  0
 14 23  2  0     0  0
 16 19  1  0     0  0
 17 19  2  0     0  0
 17 22  1  0     0  0
 18 24  2  0     0  0
 18 25  1  0     0  0
 19 23  1  0     0  0
 20 21  1  0     0  0
 24 26  1  0     0  0
 25 27  2  0     0  0
 26 28  2  0     0  0
 27 28  1  0     0  0
 30 37  1  0     0  0
 31 34  1  0     0  0
 32 35  1  0     0  0
 36 37  1  0     0  0
M  END
> <standard_type>
pIC50

> <# Confs.>
25

> <canonical_smiles>
O=C(C(S1)=CC=C1NC2=NC=NC3=C2C=C(OC)C(OCCCN4CCOCC4)=C3)NC5=CC=CC=C5

> <standard_relation>
=

> <Publication_ID>
nan

> <predicted_activity_value>
7.301029995663981

> <actual_activity_value>
7.2441251443275085

> <Compound>
33

> <standard_units>
nM

> hash
7577093909629082646

$$$$
33_
XXILIB    08252103423D 0   0.00000     0.00000

 37 41  0     1  0            999 V2000
   -7.2560    0.7795    2.2322 S   0  0  0  0  0  2           0  0  0
    1.3657    0.0000    0.0000 O   0  0  0  0  0  2           0  0  0
   -0.2566    0.0031    2.4241 O   0  0  0  0  0  2           0  0  0
  -10.5611    2.7628    1.7810 O   0  0  0  0  0  2           0  0  0
    6.3336    1.4826   -4.3346 O   0  0  0  0  0  2           0  0  0
   -4.7448    0.0963   -1.6573 N   0  0  0  0  0  3           0  0  0
   -2.5447   -0.0063   -2.6044 N   0  0  0  0  0  3           0  0  0
   -5.0790    0.1419    0.7070 N   0  0  0  0  0  3           0  0  0
   -9.6652    1.6297    3.5770 N   0  0  0  0  0  3           0  0  0
    4.4533    2.0084   -2.2515 N   0  0  2  0  0  3           0  0  0
   -6.2840    0.7579    0.8129 C   0  0  0  0  0  4           0  0  0
   -8.4832    1.7187    1.4960 C   0  0  0  0  0  4           0  0  0
    0.0000    0.0000    0.0000 C   0  0  0  0  0  4           0  0  0
   -0.7720    0.0000    1.1589 C   0  0  0  0  0  4           0  0  0
   -3.8819    0.0497   -2.6817 C   0  0  0  0  0  4           0  0  0
   -4.2141    0.0704   -0.4091 C   0  0  0  0  0  4           0  0  0
   -2.0139   -0.0056   -1.3751 C   0  0  0  0  0  4           0  0  0
  -10.6915    1.8641    4.5113 C   0  0  0  0  0  4           0  0  0
   -2.8092    0.0380   -0.2112 C   0  0  0  0  0  4           0  0  0
   -6.9088    1.4591   -0.2021 C   0  0  0  0  0  4           0  0  0
   -8.1642    2.0101    0.1860 C   0  0  0  0  0  4           0  0  0
   -0.6278   -0.0336   -1.2481 C   0  0  0  0  0  4           0  0  0
   -2.1635    0.0488    1.0513 C   0  0  0  0  0  4           0  0  0
  -11.8355    2.6072    4.1973 C   0  0  0  0  0  4           0  0  0
  -10.5492    1.3263    5.7958 C   0  0  0  0  0  4           0  0  0
  -12.8275    2.8030    5.1607 C   0  0  0  0  0  4           0  0  0
  -11.5432    1.5247    6.7552 C   0  0  0  0  0  4           0  0  0
  -12.6823    2.2614    6.4374 C   0  0  0  0  0  4           0  0  0
   -9.6522    2.0886    2.2664 C   0  0  0  0  0  4           0  0  0
    1.9816    1.1157    0.6442 C   0  0  0  0  0  4           0  0  0
    5.4430    2.5943   -4.4247 C   0  0  0  0  0  4           0  0  0
    6.6653    1.2110   -2.9734 C   0  0  0  0  0  4           0  0  0
   -0.0239   -1.2843    2.9900 C   0  0  0  0  0  4           0  0  0
    4.1542    2.3032   -3.6626 C   0  0  0  0  0  4           0  0  0
    5.4070    0.8891   -2.1707 C   0  0  0  0  0  4           0  0  0
    3.2152    1.7261   -1.5220 C   0  0  0  0  0  4           0  0  0
    3.3203    1.3942   -0.0275 C   0  0  0  0  0  4           0  0  0
  1 11  1  0     0  0
  1 12  1  0     0  0
  2 13  1  0     0  0
  2 30  1  0     0  0
  3 14  1  0     0  0
  3 33  1  0     0  0
  4 29  2  0     0  0
  5 31  1  0     0  0
  5 32  1  0     0  0
  6 15  1  0     0  0
  6 16  2  0     0  0
  7 15  2  0     0  0
  7 17  1  0     0  0
  8 11  1  0     0  0
  8 16  1  0     0  0
  9 18  1  0     0  0
  9 29  1  0     0  0
 10 34  1  0     0  0
 10 35  1  0     0  0
 10 36  1  0     0  0
 11 20  2  0     0  0
 12 21  2  0     0  0
 12 29  1  0     0  0
 13 14  1  0     0  0
 13 22  2  0     0  0
 14 23  2  0     0  0
 16 19  1  0     0  0
 17 19  2  0     0  0
 17 22  1  0     0  0
 18 24  2  0     0  0
 18 25  1  0     0  0
 19 23  1  0     0  0
 20 21  1  0     0  0
 24 26  1  0     0  0
 25 27  2  0     0  0
 26 28  2  0     0  0
 27 28  1  0     0  0
 30 37  1  0     0  0
 31 34  1  0     0  0
 32 35  1  0     0  0
 36 37  1  0     0  0
M  END
> <standard_type>
pIC50

> <# Confs.>
25

> <canonical_smiles>
O=C(C(S1)=CC=C1NC2=NC=NC3=C2C=C(OC)C(OCCCN4CCOCC4)=C3)NC5=CC=CC=C5

> <standard_relation>
=

> <Publication_ID>
nan

> <predicted_activity_value>
7.301029995663981

> <actual_activity_value>
7.2441251443275085

> <Compound>
33

> <standard_units>
nM

> hash
7577093909629082646

$$$$
33_
XXILIB    08252103423D 0   0.00000     0.00000

 37 41  0     1  0            999 V2000
   -7.2560    0.7795    2.2322 S   0  0  0  0  0  2           0  0  0
    1.3657    0.0000    0.0000 O   0  0  0  0  0  2           0  0  0
   -0.2566    0.0031    2.4241 O   0  0  0  0  0  2           0  0  0
  -10.5611    2.7628    1.7810 O   0  0  0  0  0  2           0  0  0
    4.6770   -0.8271    5.3462 O   0  0  0  0  0  2           0  0  0
   -4.7448    0.0963   -1.6573 N   0  0  0  0  0  3           0  0  0
   -2.5447   -0.0063   -2.6044 N   0  0  0  0  0  3           0  0  0
   -5.0790    0.1419    0.7070 N   0  0  0  0  0  3           0  0  0
   -9.6652    1.6297    3.5770 N   0  0  0  0  0  3           0  0  0
    3.7896   -0.4940    2.6532 N   0  0  2  0  0  3           0  0  0
   -6.2840    0.7579    0.8129 C   0  0  0  0  0  4           0  0  0
   -8.4832    1.7187    1.4960 C   0  0  0  0  0  4           0  0  0
    0.0000    0.0000    0.0000 C   0  0  0  0  0  4           0  0  0
   -0.7720    0.0000    1.1589 C   0  0  0  0  0  4           0  0  0
   -3.8819    0.0497   -2.6817 C   0  0  0  0  0  4           0  0  0
   -4.2141    0.0704   -0.4091 C   0  0  0  0  0  4           0  0  0
   -2.0139   -0.0056   -1.3751 C   0  0  0  0  0  4           0  0  0
  -10.6915    1.8641    4.5113 C   0  0  0  0  0  4           0  0  0
   -2.8092    0.0380   -0.2112 C   0  0  0  0  0  4           0  0  0
   -6.9088    1.4591   -0.2021 C   0  0  0  0  0  4           0  0  0
   -8.1642    2.0101    0.1860 C   0  0  0  0  0  4           0  0  0
   -0.6278   -0.0336   -1.2481 C   0  0  0  0  0  4           0  0  0
   -2.1635    0.0488    1.0513 C   0  0  0  0  0  4           0  0  0
  -11.8355    2.6072    4.1973 C   0  0  0  0  0  4           0  0  0
  -10.5492    1.3263    5.7958 C   0  0  0  0  0  4           0  0  0
  -12.8275    2.8030    5.1607 C   0  0  0  0  0  4           0  0  0
  -11.5432    1.5247    6.7552 C   0  0  0  0  0  4           0  0  0
  -12.6823    2.2614    6.4374 C   0  0  0  0  0  4           0  0  0
   -9.6522    2.0886    2.2664 C   0  0  0  0  0  4           0  0  0
    1.9816    1.1157    0.6442 C   0  0  0  0  0  4           0  0  0
    4.1391    0.4204    4.9086 C   0  0  0  0  0  4           0  0  0
    4.0720   -1.9117    4.6432 C   0  0  0  0  0  4           0  0  0
   -0.0239   -1.2843    2.9900 C   0  0  0  0  0  4           0  0  0
    4.3917    0.6115    3.4166 C   0  0  0  0  0  4           0  0  0
    4.3177   -1.7789    3.1421 C   0  0  0  0  0  4           0  0  0
    4.0357   -0.3106    1.2212 C   0  0  0  0  0  4           0  0  0
    3.4946    0.9616    0.5552 C   0  0  0  0  0  4           0  0  0
  1 11  1  0     0  0
  1 12  1  0     0  0
  2 13  1  0     0  0
  2 30  1  0     0  0
  3 14  1  0     0  0
  3 33  1  0     0  0
  4 29  2  0     0  0
  5 31  1  0     0  0
  5 32  1  0     0  0
  6 15  1  0     0  0
  6 16  2  0     0  0
  7 15  2  0     0  0
  7 17  1  0     0  0
  8 11  1  0     0  0
  8 16  1  0     0  0
  9 18  1  0     0  0
  9 29  1  0     0  0
 10 34  1  0     0  0
 10 35  1  0     0  0
 10 36  1  0     0  0
 11 20  2  0     0  0
 12 21  2  0     0  0
 12 29  1  0     0  0
 13 14  1  0     0  0
 13 22  2  0     0  0
 14 23  2  0     0  0
 16 19  1  0     0  0
 17 19  2  0     0  0
 17 22  1  0     0  0
 18 24  2  0     0  0
 18 25  1  0     0  0
 19 23  1  0     0  0
 20 21  1  0     0  0
 24 26  1  0     0  0
 25 27  2  0     0  0
 26 28  2  0     0  0
 27 28  1  0     0  0
 30 37  1  0     0  0
 31 34  1  0     0  0
 32 35  1  0     0  0
 36 37  1  0     0  0
M  END
> <standard_type>
pIC50

> <# Confs.>
25

> <canonical_smiles>
O=C(C(S1)=CC=C1NC2=NC=NC3=C2C=C(OC)C(OCCCN4CCOCC4)=C3)NC5=CC=CC=C5

> <standard_relation>
=

> <Publication_ID>
nan

> <predicted_activity_value>
7.301029995663981

> <actual_activity_value>
7.2441251443275085

> <Compound>
33

> <standard_units>
nM

> hash
7577093909629082646

$$$$
33_
XXILIB    08252103423D 0   0.00000     0.00000

 37 41  0     1  0            999 V2000
   -7.2560    0.7795    2.2322 S   0  0  0  0  0  2           0  0  0
    1.3657   -0.0000    0.0000 O   0  0  0  0  0  2           0  0  0
   -0.2566    0.0031    2.4241 O   0  0  0  0  0  2           0  0  0
  -10.5611    2.7628    1.7810 O   0  0  0  0  0  2           0  0  0
    2.1426   -5.4636   -3.1267 O   0  0  0  0  0  2           0  0  0
   -4.7448    0.0963   -1.6573 N   0  0  0  0  0  3           0  0  0
   -2.5447   -0.0063   -2.6044 N   0  0  0  0  0  3           0  0  0
   -5.0790    0.1419    0.7070 N   0  0  0  0  0  3           0  0  0
   -9.6652    1.6297    3.5770 N   0  0  0  0  0  3           0  0  0
    2.4241   -2.8953   -1.9119 N   0  0  2  0  0  3           0  0  0
   -6.2840    0.7579    0.8129 C   0  0  0  0  0  4           0  0  0
   -8.4832    1.7187    1.4960 C   0  0  0  0  0  4           0  0  0
    0.0000    0.0000    0.0000 C   0  0  0  0  0  4           0  0  0
   -0.7720    0.0000    1.1589 C   0  0  0  0  0  4           0  0  0
   -3.8819    0.0497   -2.6817 C   0  0  0  0  0  4           0  0  0
   -4.2141    0.0704   -0.4091 C   0  0  0  0  0  4           0  0  0
   -2.0139   -0.0056   -1.3751 C   0  0  0  0  0  4           0  0  0
  -10.6915    1.8641    4.5113 C   0  0  0  0  0  4           0  0  0
   -2.8092    0.0380   -0.2112 C   0  0  0  0  0  4           0  0  0
   -6.9088    1.4591   -0.2021 C   0  0  0  0  0  4           0  0  0
   -8.1642    2.0101    0.1860 C   0  0  0  0  0  4           0  0  0
   -0.6278   -0.0336   -1.2481 C   0  0  0  0  0  4           0  0  0
   -2.1635    0.0488    1.0513 C   0  0  0  0  0  4           0  0  0
  -11.8355    2.6072    4.1973 C   0  0  0  0  0  4           0  0  0
  -10.5492    1.3263    5.7958 C   0  0  0  0  0  4           0  0  0
  -12.8275    2.8030    5.1607 C   0  0  0  0  0  4           0  0  0
  -11.5432    1.5247    6.7552 C   0  0  0  0  0  4           0  0  0
  -12.6823    2.2614    6.4374 C   0  0  0  0  0  4           0  0  0
   -9.6522    2.0886    2.2664 C   0  0  0  0  0  4           0  0  0
    1.9816   -1.1157    0.6442 C   0  0  0  0  0  4           0  0  0
    2.1607   -5.3312   -1.7057 C   0  0  0  0  0  4           0  0  0
    1.5664   -4.3077   -3.7338 C   0  0  0  0  0  4           0  0  0
   -0.0299    1.2934    2.9860 C   0  0  0  0  0  4           0  0  0
    2.9815   -4.1119   -1.2981 C   0  0  0  0  0  4           0  0  0
    2.3686   -3.0592   -3.3744 C   0  0  0  0  0  4           0  0  0
    3.2152   -1.7261   -1.5220 C   0  0  0  0  0  4           0  0  0
    3.3203   -1.3942   -0.0275 C   0  0  0  0  0  4           0  0  0
  1 11  1  0     0  0
  1 12  1  0     0  0
  2 13  1  0     0  0
  2 30  1  0     0  0
  3 14  1  0     0  0
  3 33  1  0     0  0
  4 29  2  0     0  0
  5 31  1  0     0  0
  5 32  1  0     0  0
  6 15  1  0     0  0
  6 16  2  0     0  0
  7 15  2  0     0  0
  7 17  1  0     0  0
  8 11  1  0     0  0
  8 16  1  0     0  0
  9 18  1  0     0  0
  9 29  1  0     0  0
 10 34  1  0     0  0
 10 35  1  0     0  0
 10 36  1  0     0  0
 11 20  2  0     0  0
 12 21  2  0     0  0
 12 29  1  0     0  0
 13 14  1  0     0  0
 13 22  2  0     0  0
 14 23  2  0     0  0
 16 19  1  0     0  0
 17 19  2  0     0  0
 17 22  1  0     0  0
 18 24  2  0     0  0
 18 25  1  0     0  0
 19 23  1  0     0  0
 20 21  1  0     0  0
 24 26  1  0     0  0
 25 27  2  0     0  0
 26 28  2  0     0  0
 27 28  1  0     0  0
 30 37  1  0     0  0
 31 34  1  0     0  0
 32 35  1  0     0  0
 36 37  1  0     0  0
M  END
> <standard_type>
pIC50

> <# Confs.>
25

> <canonical_smiles>
O=C(C(S1)=CC=C1NC2=NC=NC3=C2C=C(OC)C(OCCCN4CCOCC4)=C3)NC5=CC=CC=C5

> <standard_relation>
=

> <Publication_ID>
nan

> <predicted_activity_value>
7.301029995663981

> <actual_activity_value>
7.2441251443275085

> <Compound>
33

> <standard_units>
nM

> hash
7577093909629082646

$$$$
33_
XXILIB    08252103423D 0   0.00000     0.00000

 37 41  0     1  0            999 V2000
   -7.2560    0.7795    2.2322 S   0  0  0  0  0  2           0  0  0
    1.3657    0.0000    0.0000 O   0  0  0  0  0  2           0  0  0
   -0.2566    0.0031    2.4241 O   0  0  0  0  0  2           0  0  0
  -10.5611    2.7628    1.7810 O   0  0  0  0  0  2           0  0  0
    2.1343    5.4472   -3.1589 O   0  0  0  0  0  2           0  0  0
   -4.7448    0.0963   -1.6573 N   0  0  0  0  0  3           0  0  0
   -2.5447   -0.0063   -2.6044 N   0  0  0  0  0  3           0  0  0
   -5.0790    0.1419    0.7070 N   0  0  0  0  0  3           0  0  0
   -9.6652    1.6297    3.5770 N   0  0  0  0  0  3           0  0  0
    2.4241    2.8953   -1.9119 N   0  0  2  0  0  3           0  0  0
   -6.2840    0.7579    0.8129 C   0  0  0  0  0  4           0  0  0
   -8.4832    1.7187    1.4960 C   0  0  0  0  0  4           0  0  0
    0.0000    0.0000    0.0000 C   0  0  0  0  0  4           0  0  0
   -0.7720    0.0000    1.1589 C   0  0  0  0  0  4           0  0  0
   -3.8819    0.0497   -2.6817 C   0  0  0  0  0  4           0  0  0
   -4.2141    0.0704   -0.4091 C   0  0  0  0  0  4           0  0  0
   -2.0139   -0.0056   -1.3751 C   0  0  0  0  0  4           0  0  0
  -10.6915    1.8641    4.5113 C   0  0  0  0  0  4           0  0  0
   -2.8092    0.0380   -0.2112 C   0  0  0  0  0  4           0  0  0
   -6.9088    1.4591   -0.2021 C   0  0  0  0  0  4           0  0  0
   -8.1642    2.0101    0.1860 C   0  0  0  0  0  4           0  0  0
   -0.6278   -0.0336   -1.2481 C   0  0  0  0  0  4           0  0  0
   -2.1635    0.0488    1.0513 C   0  0  0  0  0  4           0  0  0
  -11.8355    2.6072    4.1973 C   0  0  0  0  0  4           0  0  0
  -10.5492    1.3263    5.7958 C   0  0  0  0  0  4           0  0  0
  -12.8275    2.8030    5.1607 C   0  0  0  0  0  4           0  0  0
  -11.5432    1.5247    6.7552 C   0  0  0  0  0  4           0  0  0
  -12.6823    2.2614    6.4374 C   0  0  0  0  0  4           0  0  0
   -9.6522    2.0886    2.2664 C   0  0  0  0  0  4           0  0  0
    1.9816    1.1157    0.6442 C   0  0  0  0  0  4           0  0  0
    1.6188    4.2718   -3.7833 C   0  0  0  0  0  4           0  0  0
    2.0871    5.3255   -1.7378 C   0  0  0  0  0  4           0  0  0
   -0.0239   -1.2843    2.9900 C   0  0  0  0  0  4           0  0  0
    2.4396    3.0526   -3.3756 C   0  0  0  0  0  4           0  0  0
    2.9159    4.1293   -1.2760 C   0  0  0  0  0  4           0  0  0
    3.2152    1.7261   -1.5220 C   0  0  0  0  0  4           0  0  0
    3.3203    1.3942   -0.0275 C   0  0  0  0  0  4           0  0  0
  1 11  1  0     0  0
  1 12  1  0     0  0
  2 13  1  0     0  0
  2 30  1  0     0  0
  3 14  1  0     0  0
  3 33  1  0     0  0
  4 29  2  0     0  0
  5 31  1  0     0  0
  5 32  1  0     0  0
  6 15  1  0     0  0
  6 16  2  0     0  0
  7 15  2  0     0  0
  7 17  1  0     0  0
  8 11  1  0     0  0
  8 16  1  0     0  0
  9 18  1  0     0  0
  9 29  1  0     0  0
 10 34  1  0     0  0
 10 35  1  0     0  0
 10 36  1  0     0  0
 11 20  2  0     0  0
 12 21  2  0     0  0
 12 29  1  0     0  0
 13 14  1  0     0  0
 13 22  2  0     0  0
 14 23  2  0     0  0
 16 19  1  0     0  0
 17 19  2  0     0  0
 17 22  1  0     0  0
 18 24  2  0     0  0
 18 25  1  0     0  0
 19 23  1  0     0  0
 20 21  1  0     0  0
 24 26  1  0     0  0
 25 27  2  0     0  0
 26 28  2  0     0  0
 27 28  1  0     0  0
 30 37  1  0     0  0
 31 34  1  0     0  0
 32 35  1  0     0  0
 36 37  1  0     0  0
M  END
> <standard_type>
pIC50

> <# Confs.>
25

> <canonical_smiles>
O=C(C(S1)=CC=C1NC2=NC=NC3=C2C=C(OC)C(OCCCN4CCOCC4)=C3)NC5=CC=CC=C5

> <standard_relation>
=

> <Publication_ID>
nan

> <predicted_activity_value>
7.301029995663981

> <actual_activity_value>
7.2441251443275085

> <Compound>
33

> <standard_units>
nM

> hash
7577093909629082646

$$$$
33_
XXILIB    08252103423D 0   0.00000     0.00000

 37 41  0     1  0            999 V2000
   -7.5640    0.2443    1.8414 S   0  0  0  0  0  2           0  0  0
    1.3657   -0.0000    0.0000 O   0  0  0  0  0  2           0  0  0
   -0.2566    0.0031    2.4241 O   0  0  0  0  0  2           0  0  0
  -10.6983    2.5219    1.6207 O   0  0  0  0  0  2           0  0  0
    3.3498    6.6391   -0.2333 O   0  0  0  0  0  2           0  0  0
   -4.7448    0.0963   -1.6573 N   0  0  0  0  0  3           0  0  0
   -2.5447   -0.0063   -2.6044 N   0  0  0  0  0  3           0  0  0
   -5.0790    0.1419    0.7070 N   0  0  0  0  0  3           0  0  0
  -10.2350    0.6375    2.8642 N   0  0  0  0  0  3           0  0  0
    3.4513    3.8955    0.5501 N   0  0  2  0  0  3           0  0  0
   -6.2840    0.7579    0.8129 C   0  0  0  0  0  4           0  0  0
   -8.5965    1.5209    1.3574 C   0  0  0  0  0  4           0  0  0
    0.0000    0.0000    0.0000 C   0  0  0  0  0  4           0  0  0
   -0.7720    0.0000    1.1589 C   0  0  0  0  0  4           0  0  0
   -3.8819    0.0497   -2.6817 C   0  0  0  0  0  4           0  0  0
   -4.2141    0.0704   -0.4091 C   0  0  0  0  0  4           0  0  0
   -2.0139   -0.0056   -1.3751 C   0  0  0  0  0  4           0  0  0
  -11.4563    0.5320    3.5559 C   0  0  0  0  0  4           0  0  0
   -2.8092    0.0380   -0.2112 C   0  0  0  0  0  4           0  0  0
   -6.6618    1.8882    0.1117 C   0  0  0  0  0  4           0  0  0
   -7.9815    2.3269    0.4220 C   0  0  0  0  0  4           0  0  0
   -0.6278   -0.0336   -1.2481 C   0  0  0  0  0  4           0  0  0
   -2.1635    0.0488    1.0513 C   0  0  0  0  0  4           0  0  0
  -12.5048    1.4403    3.3681 C   0  0  0  0  0  4           0  0  0
  -11.6133   -0.5258    4.4591 C   0  0  0  0  0  4           0  0  0
  -13.6991    1.2844    4.0752 C   0  0  0  0  0  4           0  0  0
  -12.8087   -0.6774    5.1634 C   0  0  0  0  0  4           0  0  0
  -13.8514    0.2264    4.9705 C   0  0  0  0  0  4           0  0  0
   -9.9198    1.6218    1.9368 C   0  0  0  0  0  4           0  0  0
    1.9816    1.1157    0.6442 C   0  0  0  0  0  4           0  0  0
    2.5112    5.6725   -0.8656 C   0  0  0  0  0  4           0  0  0
    3.5942    6.2824    1.1267 C   0  0  0  0  0  4           0  0  0
   -0.0239   -1.2843    2.9900 C   0  0  0  0  0  4           0  0  0
    3.1733    4.2987   -0.8383 C   0  0  0  0  0  4           0  0  0
    4.2799    4.9206    1.2071 C   0  0  0  0  0  4           0  0  0
    4.0898    2.5778    0.5742 C   0  0  0  0  0  4           0  0  0
    3.3203    1.3942   -0.0275 C   0  0  0  0  0  4           0  0  0
  1 11  1  0     0  0
  1 12  1  0     0  0
  2 13  1  0     0  0
  2 30  1  0     0  0
  3 14  1  0     0  0
  3 33  1  0     0  0
  4 29  2  0     0  0
  5 31  1  0     0  0
  5 32  1  0     0  0
  6 15  1  0     0  0
  6 16  2  0     0  0
  7 15  2  0     0  0
  7 17  1  0     0  0
  8 11  1  0     0  0
  8 16  1  0     0  0
  9 18  1  0     0  0
  9 29  1  0     0  0
 10 34  1  0     0  0
 10 35  1  0     0  0
 10 36  1  0     0  0
 11 20  2  0     0  0
 12 21  2  0     0  0
 12 29  1  0     0  0
 13 14  1  0     0  0
 13 22  2  0     0  0
 14 23  2  0     0  0
 16 19  1  0     0  0
 17 19  2  0     0  0
 17 22  1  0     0  0
 18 24  2  0     0  0
 18 25  1  0     0  0
 19 23  1  0     0  0
 20 21  1  0     0  0
 24 26  1  0     0  0
 25 27  2  0     0  0
 26 28  2  0     0  0
 27 28  1  0     0  0
 30 37  1  0     0  0
 31 34  1  0     0  0
 32 35  1  0     0  0
 36 37  1  0     0  0
M  END
> <standard_type>
pIC50

> <# Confs.>
25

> <canonical_smiles>
O=C(C(S1)=CC=C1NC2=NC=NC3=C2C=C(OC)C(OCCCN4CCOCC4)=C3)NC5=CC=CC=C5

> <standard_relation>
=

> <Publication_ID>
nan

> <predicted_activity_value>
7.301029995663981

> <actual_activity_value>
7.2441251443275085

> <Compound>
33

> <standard_units>
nM

> hash
7577093909629082646

$$$$
33_
XXILIB    08252103423D 0   0.00000     0.00000

 37 41  0     1  0            999 V2000
   -7.5640    0.2443    1.8414 S   0  0  0  0  0  2           0  0  0
    1.3657   -0.0000    0.0000 O   0  0  0  0  0  2           0  0  0
   -0.2566    0.0031    2.4241 O   0  0  0  0  0  2           0  0  0
  -10.6983    2.5219    1.6207 O   0  0  0  0  0  2           0  0  0
    6.3876    2.4996    4.0967 O   0  0  0  0  0  2           0  0  0
   -4.7448    0.0963   -1.6573 N   0  0  0  0  0  3           0  0  0
   -2.5447   -0.0063   -2.6044 N   0  0  0  0  0  3           0  0  0
   -5.0790    0.1419    0.7070 N   0  0  0  0  0  3           0  0  0
  -10.2350    0.6375    2.8642 N   0  0  0  0  0  3           0  0  0
    4.4619    2.5070    1.9889 N   0  0  2  0  0  3           0  0  0
   -6.2840    0.7579    0.8129 C   0  0  0  0  0  4           0  0  0
   -8.5965    1.5209    1.3574 C   0  0  0  0  0  4           0  0  0
    0.0000    0.0000    0.0000 C   0  0  0  0  0  4           0  0  0
   -0.7720    0.0000    1.1589 C   0  0  0  0  0  4           0  0  0
   -3.8819    0.0497   -2.6817 C   0  0  0  0  0  4           0  0  0
   -4.2141    0.0704   -0.4091 C   0  0  0  0  0  4           0  0  0
   -2.0139   -0.0056   -1.3751 C   0  0  0  0  0  4           0  0  0
  -11.4563    0.5320    3.5559 C   0  0  0  0  0  4           0  0  0
   -2.8092    0.0380   -0.2112 C   0  0  0  0  0  4           0  0  0
   -6.6618    1.8882    0.1117 C   0  0  0  0  0  4           0  0  0
   -7.9815    2.3269    0.4220 C   0  0  0  0  0  4           0  0  0
   -0.6278   -0.0336   -1.2481 C   0  0  0  0  0  4           0  0  0
   -2.1635    0.0488    1.0513 C   0  0  0  0  0  4           0  0  0
  -12.5048    1.4403    3.3681 C   0  0  0  0  0  4           0  0  0
  -11.6133   -0.5258    4.4591 C   0  0  0  0  0  4           0  0  0
  -13.6991    1.2844    4.0752 C   0  0  0  0  0  4           0  0  0
  -12.8087   -0.6774    5.1634 C   0  0  0  0  0  4           0  0  0
  -13.8514    0.2264    4.9705 C   0  0  0  0  0  4           0  0  0
   -9.9198    1.6218    1.9368 C   0  0  0  0  0  4           0  0  0
    1.9816    1.1157    0.6442 C   0  0  0  0  0  4           0  0  0
    5.5803    3.6517    3.8556 C   0  0  0  0  0  4           0  0  0
    5.6799    1.3077    3.7575 C   0  0  0  0  0  4           0  0  0
   -0.0239   -1.2843    2.9900 C   0  0  0  0  0  4           0  0  0
    5.1890    3.7250    2.3832 C   0  0  0  0  0  4           0  0  0
    5.2853    1.3218    2.2826 C   0  0  0  0  0  4           0  0  0
    4.0898    2.5778    0.5742 C   0  0  0  0  0  4           0  0  0
    3.3203    1.3942   -0.0275 C   0  0  0  0  0  4           0  0  0
  1 11  1  0     0  0
  1 12  1  0     0  0
  2 13  1  0     0  0
  2 30  1  0     0  0
  3 14  1  0     0  0
  3 33  1  0     0  0
  4 29  2  0     0  0
  5 31  1  0     0  0
  5 32  1  0     0  0
  6 15  1  0     0  0
  6 16  2  0     0  0
  7 15  2  0     0  0
  7 17  1  0     0  0
  8 11  1  0     0  0
  8 16  1  0     0  0
  9 18  1  0     0  0
  9 29  1  0     0  0
 10 34  1  0     0  0
 10 35  1  0     0  0
 10 36  1  0     0  0
 11 20  2  0     0  0
 12 21  2  0     0  0
 12 29  1  0     0  0
 13 14  1  0     0  0
 13 22  2  0     0  0
 14 23  2  0     0  0
 16 19  1  0     0  0
 17 19  2  0     0  0
 17 22  1  0     0  0
 18 24  2  0     0  0
 18 25  1  0     0  0
 19 23  1  0     0  0
 20 21  1  0     0  0
 24 26  1  0     0  0
 25 27  2  0     0  0
 26 28  2  0     0  0
 27 28  1  0     0  0
 30 37  1  0     0  0
 31 34  1  0     0  0
 32 35  1  0     0  0
 36 37  1  0     0  0
M  END
> <standard_type>
pIC50

> <# Confs.>
25

> <canonical_smiles>
O=C(C(S1)=CC=C1NC2=NC=NC3=C2C=C(OC)C(OCCCN4CCOCC4)=C3)NC5=CC=CC=C5

> <standard_relation>
=

> <Publication_ID>
nan

> <predicted_activity_value>
7.301029995663981

> <actual_activity_value>
7.2441251443275085

> <Compound>
33

> <standard_units>
nM

> hash
7577093909629082646

$$$$
33_
XXILIB    08252103423D 0   0.00000     0.00000

 37 41  0     1  0            999 V2000
   -7.2560    0.7795    2.2322 S   0  0  0  0  0  2           0  0  0
    1.3657   -0.0000    0.0000 O   0  0  0  0  0  2           0  0  0
   -0.2566    0.0031    2.4241 O   0  0  0  0  0  2           0  0  0
  -10.5611    2.7628    1.7810 O   0  0  0  0  0  2           0  0  0
    7.1801    4.7285   -1.3013 O   0  0  0  0  0  2           0  0  0
   -4.7448    0.0963   -1.6573 N   0  0  0  0  0  3           0  0  0
   -2.5447   -0.0063   -2.6044 N   0  0  0  0  0  3           0  0  0
   -5.0790    0.1419    0.7070 N   0  0  0  0  0  3           0  0  0
   -9.6652    1.6297    3.5770 N   0  0  0  0  0  3           0  0  0
    5.3891    2.9197   -0.0085 N   0  0  2  0  0  3           0  0  0
   -6.2840    0.7579    0.8129 C   0  0  0  0  0  4           0  0  0
   -8.4832    1.7187    1.4960 C   0  0  0  0  0  4           0  0  0
    0.0000    0.0000    0.0000 C   0  0  0  0  0  4           0  0  0
   -0.7720    0.0000    1.1589 C   0  0  0  0  0  4           0  0  0
   -3.8819    0.0497   -2.6817 C   0  0  0  0  0  4           0  0  0
   -4.2141    0.0704   -0.4091 C   0  0  0  0  0  4           0  0  0
   -2.0139   -0.0056   -1.3751 C   0  0  0  0  0  4           0  0  0
  -10.6915    1.8641    4.5113 C   0  0  0  0  0  4           0  0  0
   -2.8092    0.0380   -0.2112 C   0  0  0  0  0  4           0  0  0
   -6.9088    1.4591   -0.2021 C   0  0  0  0  0  4           0  0  0
   -8.1642    2.0101    0.1860 C   0  0  0  0  0  4           0  0  0
   -0.6278   -0.0336   -1.2481 C   0  0  0  0  0  4           0  0  0
   -2.1635    0.0488    1.0513 C   0  0  0  0  0  4           0  0  0
  -11.8355    2.6072    4.1973 C   0  0  0  0  0  4           0  0  0
  -10.5492    1.3263    5.7958 C   0  0  0  0  0  4           0  0  0
  -12.8275    2.8030    5.1607 C   0  0  0  0  0  4           0  0  0
  -11.5432    1.5247    6.7552 C   0  0  0  0  0  4           0  0  0
  -12.6823    2.2614    6.4374 C   0  0  0  0  0  4           0  0  0
   -9.6522    2.0886    2.2664 C   0  0  0  0  0  4           0  0  0
    1.9816    1.1157    0.6442 C   0  0  0  0  0  4           0  0  0
    7.3243    4.4333    0.0877 C   0  0  0  0  0  4           0  0  0
    6.6538    3.6036   -2.0042 C   0  0  0  0  0  4           0  0  0
   -0.0239   -1.2843    2.9900 C   0  0  0  0  0  4           0  0  0
    5.9724    4.0737    0.6954 C   0  0  0  0  0  4           0  0  0
    5.2856    3.2177   -1.4471 C   0  0  0  0  0  4           0  0  0
    4.0898    2.5778    0.5742 C   0  0  0  0  0  4           0  0  0
    3.3203    1.3942   -0.0275 C   0  0  0  0  0  4           0  0  0
  1 11  1  0     0  0
  1 12  1  0     0  0
  2 13  1  0     0  0
  2 30  1  0     0  0
  3 14  1  0     0  0
  3 33  1  0     0  0
  4 29  2  0     0  0
  5 31  1  0     0  0
  5 32  1  0     0  0
  6 15  1  0     0  0
  6 16  2  0     0  0
  7 15  2  0     0  0
  7 17  1  0     0  0
  8 11  1  0     0  0
  8 16  1  0     0  0
  9 18  1  0     0  0
  9 29  1  0     0  0
 10 34  1  0     0  0
 10 35  1  0     0  0
 10 36  1  0     0  0
 11 20  2  0     0  0
 12 21  2  0     0  0
 12 29  1  0     0  0
 13 14  1  0     0  0
 13 22  2  0     0  0
 14 23  2  0     0  0
 16 19  1  0     0  0
 17 19  2  0     0  0
 17 22  1  0     0  0
 18 24  2  0     0  0
 18 25  1  0     0  0
 19 23  1  0     0  0
 20 21  1  0     0  0
 24 26  1  0     0  0
 25 27  2  0     0  0
 26 28  2  0     0  0
 27 28  1  0     0  0
 30 37  1  0     0  0
 31 34  1  0     0  0
 32 35  1  0     0  0
 36 37  1  0     0  0
M  END
> <standard_type>
pIC50

> <# Confs.>
25

> <canonical_smiles>
O=C(C(S1)=CC=C1NC2=NC=NC3=C2C=C(OC)C(OCCCN4CCOCC4)=C3)NC5=CC=CC=C5

> <standard_relation>
=

> <Publication_ID>
nan

> <predicted_activity_value>
7.301029995663981

> <actual_activity_value>
7.2441251443275085

> <Compound>
33

> <standard_units>
nM

> hash
7577093909629082646

$$$$
33_
XXILIB    08252103423D 0   0.00000     0.00000

 37 41  0     1  0            999 V2000
   -7.2560    0.7795    2.2322 S   0  0  0  0  0  2           0  0  0
    1.3657    0.0000   -0.0000 O   0  0  0  0  0  2           0  0  0
   -0.2566    0.0031    2.4241 O   0  0  0  0  0  2           0  0  0
  -10.5611    2.7628    1.7810 O   0  0  0  0  0  2           0  0  0
    7.6373   -0.3055   -2.4823 O   0  0  0  0  0  2           0  0  0
   -4.7448    0.0963   -1.6573 N   0  0  0  0  0  3           0  0  0
   -2.5447   -0.0063   -2.6044 N   0  0  0  0  0  3           0  0  0
   -5.0790    0.1419    0.7070 N   0  0  0  0  0  3           0  0  0
   -9.6652    1.6297    3.5770 N   0  0  0  0  0  3           0  0  0
    5.6242    0.3998   -0.5847 N   0  0  2  0  0  3           0  0  0
   -6.2840    0.7579    0.8129 C   0  0  0  0  0  4           0  0  0
   -8.4832    1.7187    1.4960 C   0  0  0  0  0  4           0  0  0
    0.0000    0.0000    0.0000 C   0  0  0  0  0  4           0  0  0
   -0.7720    0.0000    1.1589 C   0  0  0  0  0  4           0  0  0
   -3.8819    0.0497   -2.6817 C   0  0  0  0  0  4           0  0  0
   -4.2141    0.0704   -0.4091 C   0  0  0  0  0  4           0  0  0
   -2.0139   -0.0056   -1.3751 C   0  0  0  0  0  4           0  0  0
  -10.6915    1.8641    4.5113 C   0  0  0  0  0  4           0  0  0
   -2.8092    0.0380   -0.2112 C   0  0  0  0  0  4           0  0  0
   -6.9088    1.4591   -0.2021 C   0  0  0  0  0  4           0  0  0
   -8.1642    2.0101    0.1860 C   0  0  0  0  0  4           0  0  0
   -0.6278   -0.0336   -1.2481 C   0  0  0  0  0  4           0  0  0
   -2.1635    0.0488    1.0513 C   0  0  0  0  0  4           0  0  0
  -11.8355    2.6072    4.1973 C   0  0  0  0  0  4           0  0  0
  -10.5492    1.3263    5.7958 C   0  0  0  0  0  4           0  0  0
  -12.8275    2.8030    5.1607 C   0  0  0  0  0  4           0  0  0
  -11.5432    1.5247    6.7552 C   0  0  0  0  0  4           0  0  0
  -12.6823    2.2614    6.4374 C   0  0  0  0  0  4           0  0  0
   -9.6522    2.0886    2.2664 C   0  0  0  0  0  4           0  0  0
    1.9816    1.1157    0.6442 C   0  0  0  0  0  4           0  0  0
    6.8411    0.8641   -2.6701 C   0  0  0  0  0  4           0  0  0
    7.8273   -0.5687   -1.0927 C   0  0  0  0  0  4           0  0  0
   -0.0239   -1.2843    2.9900 C   0  0  0  0  0  4           0  0  0
    5.4726    0.6826   -2.0216 C   0  0  0  0  0  4           0  0  0
    6.4833   -0.7821   -0.4004 C   0  0  0  0  0  4           0  0  0
    4.3095    0.2227    0.0358 C   0  0  0  0  0  4           0  0  0
    3.3203    1.3942   -0.0275 C   0  0  0  0  0  4           0  0  0
  1 11  1  0     0  0
  1 12  1  0     0  0
  2 13  1  0     0  0
  2 30  1  0     0  0
  3 14  1  0     0  0
  3 33  1  0     0  0
  4 29  2  0     0  0
  5 31  1  0     0  0
  5 32  1  0     0  0
  6 15  1  0     0  0
  6 16  2  0     0  0
  7 15  2  0     0  0
  7 17  1  0     0  0
  8 11  1  0     0  0
  8 16  1  0     0  0
  9 18  1  0     0  0
  9 29  1  0     0  0
 10 34  1  0     0  0
 10 35  1  0     0  0
 10 36  1  0     0  0
 11 20  2  0     0  0
 12 21  2  0     0  0
 12 29  1  0     0  0
 13 14  1  0     0  0
 13 22  2  0     0  0
 14 23  2  0     0  0
 16 19  1  0     0  0
 17 19  2  0     0  0
 17 22  1  0     0  0
 18 24  2  0     0  0
 18 25  1  0     0  0
 19 23  1  0     0  0
 20 21  1  0     0  0
 24 26  1  0     0  0
 25 27  2  0     0  0
 26 28  2  0     0  0
 27 28  1  0     0  0
 30 37  1  0     0  0
 31 34  1  0     0  0
 32 35  1  0     0  0
 36 37  1  0     0  0
M  END
> <standard_type>
pIC50

> <# Confs.>
25

> <canonical_smiles>
O=C(C(S1)=CC=C1NC2=NC=NC3=C2C=C(OC)C(OCCCN4CCOCC4)=C3)NC5=CC=CC=C5

> <standard_relation>
=

> <Publication_ID>
nan

> <predicted_activity_value>
7.301029995663981

> <actual_activity_value>
7.2441251443275085

> <Compound>
33

> <standard_units>
nM

> hash
7577093909629082646

$$$$
33_
XXILIB    08252103423D 0   0.00000     0.00000

 37 41  0     1  0            999 V2000
   -7.2560    0.7795    2.2322 S   0  0  0  0  0  2           0  0  0
    1.3657   -0.0000   -0.0000 O   0  0  0  0  0  2           0  0  0
   -0.2566    0.0031    2.4241 O   0  0  0  0  0  2           0  0  0
  -10.5611    2.7628    1.7810 O   0  0  0  0  0  2           0  0  0
    1.8384    6.8690    0.8133 O   0  0  0  0  0  2           0  0  0
   -4.7448    0.0963   -1.6573 N   0  0  0  0  0  3           0  0  0
   -2.5447   -0.0063   -2.6044 N   0  0  0  0  0  3           0  0  0
   -5.0790    0.1419    0.7070 N   0  0  0  0  0  3           0  0  0
   -9.6652    1.6297    3.5770 N   0  0  0  0  0  3           0  0  0
    2.7503    4.1642    0.7549 N   0  0  2  0  0  3           0  0  0
   -6.2840    0.7579    0.8129 C   0  0  0  0  0  4           0  0  0
   -8.4832    1.7187    1.4960 C   0  0  0  0  0  4           0  0  0
    0.0000    0.0000    0.0000 C   0  0  0  0  0  4           0  0  0
   -0.7720    0.0000    1.1589 C   0  0  0  0  0  4           0  0  0
   -3.8819    0.0497   -2.6817 C   0  0  0  0  0  4           0  0  0
   -4.2141    0.0704   -0.4091 C   0  0  0  0  0  4           0  0  0
   -2.0139   -0.0056   -1.3751 C   0  0  0  0  0  4           0  0  0
  -10.6915    1.8641    4.5113 C   0  0  0  0  0  4           0  0  0
   -2.8092    0.0380   -0.2112 C   0  0  0  0  0  4           0  0  0
   -6.9088    1.4591   -0.2021 C   0  0  0  0  0  4           0  0  0
   -8.1642    2.0101    0.1860 C   0  0  0  0  0  4           0  0  0
   -0.6278   -0.0336   -1.2481 C   0  0  0  0  0  4           0  0  0
   -2.1635    0.0488    1.0513 C   0  0  0  0  0  4           0  0  0
  -11.8355    2.6072    4.1973 C   0  0  0  0  0  4           0  0  0
  -10.5492    1.3263    5.7958 C   0  0  0  0  0  4           0  0  0
  -12.8275    2.8030    5.1607 C   0  0  0  0  0  4           0  0  0
  -11.5432    1.5247    6.7552 C   0  0  0  0  0  4           0  0  0
  -12.6823    2.2614    6.4374 C   0  0  0  0  0  4           0  0  0
   -9.6522    2.0886    2.2664 C   0  0  0  0  0  4           0  0  0
    1.9816    1.1157    0.6442 C   0  0  0  0  0  4           0  0  0
    1.0022    5.8324    0.3002 C   0  0  0  0  0  4           0  0  0
    2.6873    6.3680    1.8453 C   0  0  0  0  0  4           0  0  0
   -0.0239   -1.2843    2.9900 C   0  0  0  0  0  4           0  0  0
    1.8513    4.7049   -0.2780 C   0  0  0  0  0  4           0  0  0
    3.5774    5.2494    1.3091 C   0  0  0  0  0  4           0  0  0
    3.5669    3.0840    0.1973 C   0  0  0  0  0  4           0  0  0
    2.8441    1.8552   -0.3707 C   0  0  0  0  0  4           0  0  0
  1 11  1  0     0  0
  1 12  1  0     0  0
  2 13  1  0     0  0
  2 30  1  0     0  0
  3 14  1  0     0  0
  3 33  1  0     0  0
  4 29  2  0     0  0
  5 31  1  0     0  0
  5 32  1  0     0  0
  6 15  1  0     0  0
  6 16  2  0     0  0
  7 15  2  0     0  0
  7 17  1  0     0  0
  8 11  1  0     0  0
  8 16  1  0     0  0
  9 18  1  0     0  0
  9 29  1  0     0  0
 10 34  1  0     0  0
 10 35  1  0     0  0
 10 36  1  0     0  0
 11 20  2  0     0  0
 12 21  2  0     0  0
 12 29  1  0     0  0
 13 14  1  0     0  0
 13 22  2  0     0  0
 14 23  2  0     0  0
 16 19  1  0     0  0
 17 19  2  0     0  0
 17 22  1  0     0  0
 18 24  2  0     0  0
 18 25  1  0     0  0
 19 23  1  0     0  0
 20 21  1  0     0  0
 24 26  1  0     0  0
 25 27  2  0     0  0
 26 28  2  0     0  0
 27 28  1  0     0  0
 30 37  1  0     0  0
 31 34  1  0     0  0
 32 35  1  0     0  0
 36 37  1  0     0  0
M  END
> <standard_type>
pIC50

> <# Confs.>
25

> <canonical_smiles>
O=C(C(S1)=CC=C1NC2=NC=NC3=C2C=C(OC)C(OCCCN4CCOCC4)=C3)NC5=CC=CC=C5

> <standard_relation>
=

> <Publication_ID>
nan

> <predicted_activity_value>
7.301029995663981

> <actual_activity_value>
7.2441251443275085

> <Compound>
33

> <standard_units>
nM

> hash
7577093909629082646

$$$$
33_
XXILIB    08252103423D 0   0.00000     0.00000

 37 41  0     1  0            999 V2000
   -7.2560    0.7795    2.2322 S   0  0  0  0  0  2           0  0  0
    1.3657    0.0000    0.0000 O   0  0  0  0  0  2           0  0  0
   -0.2566    0.0031    2.4241 O   0  0  0  0  0  2           0  0  0
  -10.5611    2.7628    1.7810 O   0  0  0  0  0  2           0  0  0
    7.6521    0.3288   -2.4576 O   0  0  0  0  0  2           0  0  0
   -4.7448    0.0963   -1.6573 N   0  0  0  0  0  3           0  0  0
   -2.5447   -0.0063   -2.6044 N   0  0  0  0  0  3           0  0  0
   -5.0790    0.1419    0.7070 N   0  0  0  0  0  3           0  0  0
   -9.6652    1.6297    3.5770 N   0  0  0  0  0  3           0  0  0
    5.6242   -0.3998   -0.5847 N   0  0  2  0  0  3           0  0  0
   -6.2840    0.7579    0.8129 C   0  0  0  0  0  4           0  0  0
   -8.4832    1.7187    1.4960 C   0  0  0  0  0  4           0  0  0
    0.0000    0.0000    0.0000 C   0  0  0  0  0  4           0  0  0
   -0.7720    0.0000    1.1589 C   0  0  0  0  0  4           0  0  0
   -3.8819    0.0497   -2.6817 C   0  0  0  0  0  4           0  0  0
   -4.2141    0.0704   -0.4091 C   0  0  0  0  0  4           0  0  0
   -2.0139   -0.0056   -1.3751 C   0  0  0  0  0  4           0  0  0
  -10.6915    1.8641    4.5113 C   0  0  0  0  0  4           0  0  0
   -2.8092    0.0380   -0.2112 C   0  0  0  0  0  4           0  0  0
   -6.9088    1.4591   -0.2021 C   0  0  0  0  0  4           0  0  0
   -8.1642    2.0101    0.1860 C   0  0  0  0  0  4           0  0  0
   -0.6278   -0.0336   -1.2481 C   0  0  0  0  0  4           0  0  0
   -2.1635    0.0488    1.0513 C   0  0  0  0  0  4           0  0  0
  -11.8355    2.6072    4.1973 C   0  0  0  0  0  4           0  0  0
  -10.5492    1.3263    5.7958 C   0  0  0  0  0  4           0  0  0
  -12.8275    2.8030    5.1607 C   0  0  0  0  0  4           0  0  0
  -11.5432    1.5247    6.7552 C   0  0  0  0  0  4           0  0  0
  -12.6823    2.2614    6.4374 C   0  0  0  0  0  4           0  0  0
   -9.6522    2.0886    2.2664 C   0  0  0  0  0  4           0  0  0
    1.9816   -1.1157    0.6442 C   0  0  0  0  0  4           0  0  0
    7.7978    0.6408   -1.0725 C   0  0  0  0  0  4           0  0  0
    6.9082   -0.8772   -2.6275 C   0  0  0  0  0  4           0  0  0
   -0.0299    1.2934    2.9860 C   0  0  0  0  0  4           0  0  0
    6.4293    0.8223   -0.4240 C   0  0  0  0  0  4           0  0  0
    5.5170   -0.7380   -2.0141 C   0  0  0  0  0  4           0  0  0
    4.3095   -0.2227    0.0358 C   0  0  0  0  0  4           0  0  0
    3.3203   -1.3942   -0.0275 C   0  0  0  0  0  4           0  0  0
  1 11  1  0     0  0
  1 12  1  0     0  0
  2 13  1  0     0  0
  2 30  1  0     0  0
  3 14  1  0     0  0
  3 33  1  0     0  0
  4 29  2  0     0  0
  5 31  1  0     0  0
  5 32  1  0     0  0
  6 15  1  0     0  0
  6 16  2  0     0  0
  7 15  2  0     0  0
  7 17  1  0     0  0
  8 11  1  0     0  0
  8 16  1  0     0  0
  9 18  1  0     0  0
  9 29  1  0     0  0
 10 34  1  0     0  0
 10 35  1  0     0  0
 10 36  1  0     0  0
 11 20  2  0     0  0
 12 21  2  0     0  0
 12 29  1  0     0  0
 13 14  1  0     0  0
 13 22  2  0     0  0
 14 23  2  0     0  0
 16 19  1  0     0  0
 17 19  2  0     0  0
 17 22  1  0     0  0
 18 24  2  0     0  0
 18 25  1  0     0  0
 19 23  1  0     0  0
 20 21  1  0     0  0
 24 26  1  0     0  0
 25 27  2  0     0  0
 26 28  2  0     0  0
 27 28  1  0     0  0
 30 37  1  0     0  0
 31 34  1  0     0  0
 32 35  1  0     0  0
 36 37  1  0     0  0
M  END
> <standard_type>
pIC50

> <# Confs.>
25

> <canonical_smiles>
O=C(C(S1)=CC=C1NC2=NC=NC3=C2C=C(OC)C(OCCCN4CCOCC4)=C3)NC5=CC=CC=C5

> <standard_relation>
=

> <Publication_ID>
nan

> <predicted_activity_value>
7.301029995663981

> <actual_activity_value>
7.2441251443275085

> <Compound>
33

> <standard_units>
nM

> hash
7577093909629082646

$$$$
33_
XXILIB    08252103423D 0   0.00000     0.00000

 37 41  0     1  0            999 V2000
   -7.2560    0.7795    2.2322 S   0  0  0  0  0  2           0  0  0
    1.3657    0.0000   -0.0000 O   0  0  0  0  0  2           0  0  0
   -0.2566    0.0031    2.4241 O   0  0  0  0  0  2           0  0  0
  -10.5611    2.7628    1.7810 O   0  0  0  0  0  2           0  0  0
    6.6931   -0.7879    3.3510 O   0  0  0  0  0  2           0  0  0
   -4.7448    0.0963   -1.6573 N   0  0  0  0  0  3           0  0  0
   -2.5447   -0.0063   -2.6044 N   0  0  0  0  0  3           0  0  0
   -5.0790    0.1419    0.7070 N   0  0  0  0  0  3           0  0  0
   -9.6652    1.6297    3.5770 N   0  0  0  0  0  3           0  0  0
    4.7200   -0.2589    1.3565 N   0  0  2  0  0  3           0  0  0
   -6.2840    0.7579    0.8129 C   0  0  0  0  0  4           0  0  0
   -8.4832    1.7187    1.4960 C   0  0  0  0  0  4           0  0  0
    0.0000    0.0000    0.0000 C   0  0  0  0  0  4           0  0  0
   -0.7720    0.0000    1.1589 C   0  0  0  0  0  4           0  0  0
   -3.8819    0.0497   -2.6817 C   0  0  0  0  0  4           0  0  0
   -4.2141    0.0704   -0.4091 C   0  0  0  0  0  4           0  0  0
   -2.0139   -0.0056   -1.3751 C   0  0  0  0  0  4           0  0  0
  -10.6915    1.8641    4.5113 C   0  0  0  0  0  4           0  0  0
   -2.8092    0.0380   -0.2112 C   0  0  0  0  0  4           0  0  0
   -6.9088    1.4591   -0.2021 C   0  0  0  0  0  4           0  0  0
   -8.1642    2.0101    0.1860 C   0  0  0  0  0  4           0  0  0
   -0.6278   -0.0336   -1.2481 C   0  0  0  0  0  4           0  0  0
   -2.1635    0.0488    1.0513 C   0  0  0  0  0  4           0  0  0
  -11.8355    2.6072    4.1973 C   0  0  0  0  0  4           0  0  0
  -10.5492    1.3263    5.7958 C   0  0  0  0  0  4           0  0  0
  -12.8275    2.8030    5.1607 C   0  0  0  0  0  4           0  0  0
  -11.5432    1.5247    6.7552 C   0  0  0  0  0  4           0  0  0
  -12.6823    2.2614    6.4374 C   0  0  0  0  0  4           0  0  0
   -9.6522    2.0886    2.2664 C   0  0  0  0  0  4           0  0  0
    1.9816    1.1157    0.6442 C   0  0  0  0  0  4           0  0  0
    5.8064    0.3226    3.4842 C   0  0  0  0  0  4           0  0  0
    6.0568   -1.8613    2.6585 C   0  0  0  0  0  4           0  0  0
   -0.0239   -1.2843    2.9900 C   0  0  0  0  0  4           0  0  0
    5.3752    0.8234    2.1095 C   0  0  0  0  0  4           0  0  0
    5.6261   -1.4161    1.2629 C   0  0  0  0  0  4           0  0  0
    4.3095    0.2227    0.0358 C   0  0  0  0  0  4           0  0  0
    3.3203    1.3942   -0.0275 C   0  0  0  0  0  4           0  0  0
  1 11  1  0     0  0
  1 12  1  0     0  0
  2 13  1  0     0  0
  2 30  1  0     0  0
  3 14  1  0     0  0
  3 33  1  0     0  0
  4 29  2  0     0  0
  5 31  1  0     0  0
  5 32  1  0     0  0
  6 15  1  0     0  0
  6 16  2  0     0  0
  7 15  2  0     0  0
  7 17  1  0     0  0
  8 11  1  0     0  0
  8 16  1  0     0  0
  9 18  1  0     0  0
  9 29  1  0     0  0
 10 34  1  0     0  0
 10 35  1  0     0  0
 10 36  1  0     0  0
 11 20  2  0     0  0
 12 21  2  0     0  0
 12 29  1  0     0  0
 13 14  1  0     0  0
 13 22  2  0     0  0
 14 23  2  0     0  0
 16 19  1  0     0  0
 17 19  2  0     0  0
 17 22  1  0     0  0
 18 24  2  0     0  0
 18 25  1  0     0  0
 19 23  1  0     0  0
 20 21  1  0     0  0
 24 26  1  0     0  0
 25 27  2  0     0  0
 26 28  2  0     0  0
 27 28  1  0     0  0
 30 37  1  0     0  0
 31 34  1  0     0  0
 32 35  1  0     0  0
 36 37  1  0     0  0
M  END
> <standard_type>
pIC50

> <# Confs.>
25

> <canonical_smiles>
O=C(C(S1)=CC=C1NC2=NC=NC3=C2C=C(OC)C(OCCCN4CCOCC4)=C3)NC5=CC=CC=C5

> <standard_relation>
=

> <Publication_ID>
nan

> <predicted_activity_value>
7.301029995663981

> <actual_activity_value>
7.2441251443275085

> <Compound>
33

> <standard_units>
nM

> hash
7577093909629082646

$$$$
33_
XXILIB    08252103423D 0   0.00000     0.00000

 37 41  0     1  0            999 V2000
   -7.2560    0.7795    2.2322 S   0  0  0  0  0  2           0  0  0
    1.3657   -0.0000    0.0000 O   0  0  0  0  0  2           0  0  0
   -0.2566    0.0031    2.4241 O   0  0  0  0  0  2           0  0  0
  -10.5611    2.7628    1.7810 O   0  0  0  0  0  2           0  0  0
    6.3521   -1.4600   -4.3118 O   0  0  0  0  0  2           0  0  0
   -4.7448    0.0963   -1.6573 N   0  0  0  0  0  3           0  0  0
   -2.5447   -0.0063   -2.6044 N   0  0  0  0  0  3           0  0  0
   -5.0790    0.1419    0.7070 N   0  0  0  0  0  3           0  0  0
   -9.6652    1.6297    3.5770 N   0  0  0  0  0  3           0  0  0
    4.4533   -2.0084   -2.2515 N   0  0  2  0  0  3           0  0  0
   -6.2840    0.7579    0.8129 C   0  0  0  0  0  4           0  0  0
   -8.4832    1.7187    1.4960 C   0  0  0  0  0  4           0  0  0
    0.0000    0.0000    0.0000 C   0  0  0  0  0  4           0  0  0
   -0.7720    0.0000    1.1589 C   0  0  0  0  0  4           0  0  0
   -3.8819    0.0497   -2.6817 C   0  0  0  0  0  4           0  0  0
   -4.2141    0.0704   -0.4091 C   0  0  0  0  0  4           0  0  0
   -2.0139   -0.0056   -1.3751 C   0  0  0  0  0  4           0  0  0
  -10.6915    1.8641    4.5113 C   0  0  0  0  0  4           0  0  0
   -2.8092    0.0380   -0.2112 C   0  0  0  0  0  4           0  0  0
   -6.9088    1.4591   -0.2021 C   0  0  0  0  0  4           0  0  0
   -8.1642    2.0101    0.1860 C   0  0  0  0  0  4           0  0  0
   -0.6278   -0.0336   -1.2481 C   0  0  0  0  0  4           0  0  0
   -2.1635    0.0488    1.0513 C   0  0  0  0  0  4           0  0  0
  -11.8355    2.6072    4.1973 C   0  0  0  0  0  4           0  0  0
  -10.5492    1.3263    5.7958 C   0  0  0  0  0  4           0  0  0
  -12.8275    2.8030    5.1607 C   0  0  0  0  0  4           0  0  0
  -11.5432    1.5247    6.7552 C   0  0  0  0  0  4           0  0  0
  -12.6823    2.2614    6.4374 C   0  0  0  0  0  4           0  0  0
   -9.6522    2.0886    2.2664 C   0  0  0  0  0  4           0  0  0
    1.9816   -1.1157    0.6442 C   0  0  0  0  0  4           0  0  0
    6.6428   -1.1366   -2.9524 C   0  0  0  0  0  4           0  0  0
    5.5125   -2.6115   -4.3879 C   0  0  0  0  0  4           0  0  0
   -0.0299    1.2934    2.9860 C   0  0  0  0  0  4           0  0  0
    5.3541   -0.8455   -2.1904 C   0  0  0  0  0  4           0  0  0
    4.1951   -2.3615   -3.6578 C   0  0  0  0  0  4           0  0  0
    3.2152   -1.7261   -1.5220 C   0  0  0  0  0  4           0  0  0
    3.3203   -1.3942   -0.0275 C   0  0  0  0  0  4           0  0  0
  1 11  1  0     0  0
  1 12  1  0     0  0
  2 13  1  0     0  0
  2 30  1  0     0  0
  3 14  1  0     0  0
  3 33  1  0     0  0
  4 29  2  0     0  0
  5 31  1  0     0  0
  5 32  1  0     0  0
  6 15  1  0     0  0
  6 16  2  0     0  0
  7 15  2  0     0  0
  7 17  1  0     0  0
  8 11  1  0     0  0
  8 16  1  0     0  0
  9 18  1  0     0  0
  9 29  1  0     0  0
 10 34  1  0     0  0
 10 35  1  0     0  0
 10 36  1  0     0  0
 11 20  2  0     0  0
 12 21  2  0     0  0
 12 29  1  0     0  0
 13 14  1  0     0  0
 13 22  2  0     0  0
 14 23  2  0     0  0
 16 19  1  0     0  0
 17 19  2  0     0  0
 17 22  1  0     0  0
 18 24  2  0     0  0
 18 25  1  0     0  0
 19 23  1  0     0  0
 20 21  1  0     0  0
 24 26  1  0     0  0
 25 27  2  0     0  0
 26 28  2  0     0  0
 27 28  1  0     0  0
 30 37  1  0     0  0
 31 34  1  0     0  0
 32 35  1  0     0  0
 36 37  1  0     0  0
M  END
> <standard_type>
pIC50

> <# Confs.>
25

> <canonical_smiles>
O=C(C(S1)=CC=C1NC2=NC=NC3=C2C=C(OC)C(OCCCN4CCOCC4)=C3)NC5=CC=CC=C5

> <standard_relation>
=

> <Publication_ID>
nan

> <predicted_activity_value>
7.301029995663981

> <actual_activity_value>
7.2441251443275085

> <Compound>
33

> <standard_units>
nM

> hash
7577093909629082646

$$$$
33_
XXILIB    08252103423D 0   0.00000     0.00000

 37 41  0     1  0            999 V2000
   -7.2560    0.7795    2.2322 S   0  0  0  0  0  2           0  0  0
    1.3657   -0.0000    0.0000 O   0  0  0  0  0  2           0  0  0
   -0.2566    0.0031    2.4241 O   0  0  0  0  0  2           0  0  0
  -10.5611    2.7628    1.7810 O   0  0  0  0  0  2           0  0  0
    4.6768    0.8638    5.3415 O   0  0  0  0  0  2           0  0  0
   -4.7448    0.0963   -1.6573 N   0  0  0  0  0  3           0  0  0
   -2.5447   -0.0063   -2.6044 N   0  0  0  0  0  3           0  0  0
   -5.0790    0.1419    0.7070 N   0  0  0  0  0  3           0  0  0
   -9.6652    1.6297    3.5770 N   0  0  0  0  0  3           0  0  0
    3.7896    0.4940    2.6532 N   0  0  2  0  0  3           0  0  0
   -6.2840    0.7579    0.8129 C   0  0  0  0  0  4           0  0  0
   -8.4832    1.7187    1.4960 C   0  0  0  0  0  4           0  0  0
    0.0000    0.0000    0.0000 C   0  0  0  0  0  4           0  0  0
   -0.7720    0.0000    1.1589 C   0  0  0  0  0  4           0  0  0
   -3.8819    0.0497   -2.6817 C   0  0  0  0  0  4           0  0  0
   -4.2141    0.0704   -0.4091 C   0  0  0  0  0  4           0  0  0
   -2.0139   -0.0056   -1.3751 C   0  0  0  0  0  4           0  0  0
  -10.6915    1.8641    4.5113 C   0  0  0  0  0  4           0  0  0
   -2.8092    0.0380   -0.2112 C   0  0  0  0  0  4           0  0  0
   -6.9088    1.4591   -0.2021 C   0  0  0  0  0  4           0  0  0
   -8.1642    2.0101    0.1860 C   0  0  0  0  0  4           0  0  0
   -0.6278   -0.0336   -1.2481 C   0  0  0  0  0  4           0  0  0
   -2.1635    0.0488    1.0513 C   0  0  0  0  0  4           0  0  0
  -11.8355    2.6072    4.1973 C   0  0  0  0  0  4           0  0  0
  -10.5492    1.3263    5.7958 C   0  0  0  0  0  4           0  0  0
  -12.8275    2.8030    5.1607 C   0  0  0  0  0  4           0  0  0
  -11.5432    1.5247    6.7552 C   0  0  0  0  0  4           0  0  0
  -12.6823    2.2614    6.4374 C   0  0  0  0  0  4           0  0  0
   -9.6522    2.0886    2.2664 C   0  0  0  0  0  4           0  0  0
    1.9816   -1.1157    0.6442 C   0  0  0  0  0  4           0  0  0
    4.1270    1.9541    4.6024 C   0  0  0  0  0  4           0  0  0
    4.0837   -0.3696    4.9374 C   0  0  0  0  0  4           0  0  0
   -0.0299    1.2934    2.9860 C   0  0  0  0  0  4           0  0  0
    4.3796    1.7630    3.1104 C   0  0  0  0  0  4           0  0  0
    4.3299   -0.6195    3.4514 C   0  0  0  0  0  4           0  0  0
    4.0357    0.3106    1.2212 C   0  0  0  0  0  4           0  0  0
    3.4946   -0.9616    0.5552 C   0  0  0  0  0  4           0  0  0
  1 11  1  0     0  0
  1 12  1  0     0  0
  2 13  1  0     0  0
  2 30  1  0     0  0
  3 14  1  0     0  0
  3 33  1  0     0  0
  4 29  2  0     0  0
  5 31  1  0     0  0
  5 32  1  0     0  0
  6 15  1  0     0  0
  6 16  2  0     0  0
  7 15  2  0     0  0
  7 17  1  0     0  0
  8 11  1  0     0  0
  8 16  1  0     0  0
  9 18  1  0     0  0
  9 29  1  0     0  0
 10 34  1  0     0  0
 10 35  1  0     0  0
 10 36  1  0     0  0
 11 20  2  0     0  0
 12 21  2  0     0  0
 12 29  1  0     0  0
 13 14  1  0     0  0
 13 22  2  0     0  0
 14 23  2  0     0  0
 16 19  1  0     0  0
 17 19  2  0     0  0
 17 22  1  0     0  0
 18 24  2  0     0  0
 18 25  1  0     0  0
 19 23  1  0     0  0
 20 21  1  0     0  0
 24 26  1  0     0  0
 25 27  2  0     0  0
 26 28  2  0     0  0
 27 28  1  0     0  0
 30 37  1  0     0  0
 31 34  1  0     0  0
 32 35  1  0     0  0
 36 37  1  0     0  0
M  END
> <standard_type>
pIC50

> <# Confs.>
25

> <canonical_smiles>
O=C(C(S1)=CC=C1NC2=NC=NC3=C2C=C(OC)C(OCCCN4CCOCC4)=C3)NC5=CC=CC=C5

> <standard_relation>
=

> <Publication_ID>
nan

> <predicted_activity_value>
7.301029995663981

> <actual_activity_value>
7.2441251443275085

> <Compound>
33

> <standard_units>
nM

> hash
7577093909629082646

$$$$
33_
XXILIB    08252103423D 0   0.00000     0.00000

 37 41  0     1  0            999 V2000
   -7.2560    0.7795    2.2322 S   0  0  0  0  0  2           0  0  0
    1.3657    0.0000   -0.0000 O   0  0  0  0  0  2           0  0  0
   -0.2566    0.0031    2.4241 O   0  0  0  0  0  2           0  0  0
  -10.5611    2.7628    1.7810 O   0  0  0  0  0  2           0  0  0
    8.4764    0.4739   -0.4817 O   0  0  0  0  0  2           0  0  0
   -4.7448    0.0963   -1.6573 N   0  0  0  0  0  3           0  0  0
   -2.5447   -0.0063   -2.6044 N   0  0  0  0  0  3           0  0  0
   -5.0790    0.1419    0.7070 N   0  0  0  0  0  3           0  0  0
   -9.6652    1.6297    3.5770 N   0  0  0  0  0  3           0  0  0
    5.6242    0.3998   -0.5847 N   0  0  2  0  0  3           0  0  0
   -6.2840    0.7579    0.8129 C   0  0  0  0  0  4           0  0  0
   -8.4832    1.7187    1.4960 C   0  0  0  0  0  4           0  0  0
    0.0000    0.0000    0.0000 C   0  0  0  0  0  4           0  0  0
   -0.7720    0.0000    1.1589 C   0  0  0  0  0  4           0  0  0
   -3.8819    0.0497   -2.6817 C   0  0  0  0  0  4           0  0  0
   -4.2141    0.0704   -0.4091 C   0  0  0  0  0  4           0  0  0
   -2.0139   -0.0056   -1.3751 C   0  0  0  0  0  4           0  0  0
  -10.6915    1.8641    4.5113 C   0  0  0  0  0  4           0  0  0
   -2.8092    0.0380   -0.2112 C   0  0  0  0  0  4           0  0  0
   -6.9088    1.4591   -0.2021 C   0  0  0  0  0  4           0  0  0
   -8.1642    2.0101    0.1860 C   0  0  0  0  0  4           0  0  0
   -0.6278   -0.0336   -1.2481 C   0  0  0  0  0  4           0  0  0
   -2.1635    0.0488    1.0513 C   0  0  0  0  0  4           0  0  0
  -11.8355    2.6072    4.1973 C   0  0  0  0  0  4           0  0  0
  -10.5492    1.3263    5.7958 C   0  0  0  0  0  4           0  0  0
  -12.8275    2.8030    5.1607 C   0  0  0  0  0  4           0  0  0
  -11.5432    1.5247    6.7552 C   0  0  0  0  0  4           0  0  0
  -12.6823    2.2614    6.4374 C   0  0  0  0  0  4           0  0  0
   -9.6522    2.0886    2.2664 C   0  0  0  0  0  4           0  0  0
    1.9816    1.1157    0.6442 C   0  0  0  0  0  4           0  0  0
    7.8002   -0.6385   -1.0668 C   0  0  0  0  0  4           0  0  0
    7.7265    1.6740   -0.6662 C   0  0  0  0  0  4           0  0  0
   -0.0239   -1.2843    2.9900 C   0  0  0  0  0  4           0  0  0
    6.4293   -0.8223   -0.4240 C   0  0  0  0  0  4           0  0  0
    6.3499    1.5491   -0.0176 C   0  0  0  0  0  4           0  0  0
    4.3095    0.2227    0.0358 C   0  0  0  0  0  4           0  0  0
    3.3203    1.3942   -0.0275 C   0  0  0  0  0  4           0  0  0
  1 11  1  0     0  0
  1 12  1  0     0  0
  2 13  1  0     0  0
  2 30  1  0     0  0
  3 14  1  0     0  0
  3 33  1  0     0  0
  4 29  2  0     0  0
  5 31  1  0     0  0
  5 32  1  0     0  0
  6 15  1  0     0  0
  6 16  2  0     0  0
  7 15  2  0     0  0
  7 17  1  0     0  0
  8 11  1  0     0  0
  8 16  1  0     0  0
  9 18  1  0     0  0
  9 29  1  0     0  0
 10 34  1  0     0  0
 10 35  1  0     0  0
 10 36  1  0     0  0
 11 20  2  0     0  0
 12 21  2  0     0  0
 12 29  1  0     0  0
 13 14  1  0     0  0
 13 22  2  0     0  0
 14 23  2  0     0  0
 16 19  1  0     0  0
 17 19  2  0     0  0
 17 22  1  0     0  0
 18 24  2  0     0  0
 18 25  1  0     0  0
 19 23  1  0     0  0
 20 21  1  0     0  0
 24 26  1  0     0  0
 25 27  2  0     0  0
 26 28  2  0     0  0
 27 28  1  0     0  0
 30 37  1  0     0  0
 31 34  1  0     0  0
 32 35  1  0     0  0
 36 37  1  0     0  0
M  END
> <standard_type>
pIC50

> <# Confs.>
25

> <canonical_smiles>
O=C(C(S1)=CC=C1NC2=NC=NC3=C2C=C(OC)C(OCCCN4CCOCC4)=C3)NC5=CC=CC=C5

> <standard_relation>
=

> <Publication_ID>
nan

> <predicted_activity_value>
7.301029995663981

> <actual_activity_value>
7.2441251443275085

> <Compound>
33

> <standard_units>
nM

> hash
7577093909629082646

$$$$
33_
XXILIB    08252103423D 0   0.00000     0.00000

 37 41  0     1  0            999 V2000
   -7.3221   -0.1546    2.2409 S   0  0  0  0  0  2           0  0  0
    1.3657   -0.0000    0.0000 O   0  0  0  0  0  2           0  0  0
   -0.2566    0.0031    2.4241 O   0  0  0  0  0  2           0  0  0
  -10.8905   -1.6168    1.8064 O   0  0  0  0  0  2           0  0  0
    3.3498    6.6391   -0.2333 O   0  0  0  0  0  2           0  0  0
   -4.7448    0.0963   -1.6573 N   0  0  0  0  0  3           0  0  0
   -2.5447   -0.0063   -2.6044 N   0  0  0  0  0  3           0  0  0
   -5.0790    0.1419    0.7070 N   0  0  0  0  0  3           0  0  0
   -9.8377   -0.5987    3.5861 N   0  0  0  0  0  3           0  0  0
    3.4513    3.8955    0.5501 N   0  0  2  0  0  3           0  0  0
   -6.3585   -0.2962    0.8226 C   0  0  0  0  0  4           0  0  0
   -8.6764   -0.9085    1.5146 C   0  0  0  0  0  4           0  0  0
    0.0000    0.0000    0.0000 C   0  0  0  0  0  4           0  0  0
   -0.7720   -0.0000    1.1589 C   0  0  0  0  0  4           0  0  0
   -3.8819    0.0497   -2.6817 C   0  0  0  0  0  4           0  0  0
   -4.2141    0.0704   -0.4091 C   0  0  0  0  0  4           0  0  0
   -2.0139   -0.0056   -1.3751 C   0  0  0  0  0  4           0  0  0
  -10.8915   -0.6533    4.5177 C   0  0  0  0  0  4           0  0  0
   -2.8092    0.0380   -0.2112 C   0  0  0  0  0  4           0  0  0
   -7.0775   -0.9202   -0.1803 C   0  0  0  0  0  4           0  0  0
   -8.4020   -1.2695    0.2119 C   0  0  0  0  0  4           0  0  0
   -0.6278   -0.0336   -1.2481 C   0  0  0  0  0  4           0  0  0
   -2.1635    0.0488    1.0513 C   0  0  0  0  0  4           0  0  0
  -12.1350   -1.2179    4.2103 C   0  0  0  0  0  4           0  0  0
  -10.6716   -0.1216    5.7937 C   0  0  0  0  0  4           0  0  0
  -13.1440   -1.2528    5.1754 C   0  0  0  0  0  4           0  0  0
  -11.6830   -0.1589    6.7548 C   0  0  0  0  0  4           0  0  0
  -12.9179   -0.7255    6.4462 C   0  0  0  0  0  4           0  0  0
   -9.8906   -1.0806    2.2848 C   0  0  0  0  0  4           0  0  0
    1.9816    1.1157    0.6442 C   0  0  0  0  0  4           0  0  0
    2.5112    5.6725   -0.8656 C   0  0  0  0  0  4           0  0  0
    3.5942    6.2824    1.1267 C   0  0  0  0  0  4           0  0  0
   -0.0239   -1.2843    2.9900 C   0  0  0  0  0  4           0  0  0
    3.1733    4.2987   -0.8383 C   0  0  0  0  0  4           0  0  0
    4.2799    4.9206    1.2071 C   0  0  0  0  0  4           0  0  0
    4.0898    2.5778    0.5742 C   0  0  0  0  0  4           0  0  0
    3.3203    1.3942   -0.0275 C   0  0  0  0  0  4           0  0  0
  1 11  1  0     0  0
  1 12  1  0     0  0
  2 13  1  0     0  0
  2 30  1  0     0  0
  3 14  1  0     0  0
  3 33  1  0     0  0
  4 29  2  0     0  0
  5 31  1  0     0  0
  5 32  1  0     0  0
  6 15  1  0     0  0
  6 16  2  0     0  0
  7 15  2  0     0  0
  7 17  1  0     0  0
  8 11  1  0     0  0
  8 16  1  0     0  0
  9 18  1  0     0  0
  9 29  1  0     0  0
 10 34  1  0     0  0
 10 35  1  0     0  0
 10 36  1  0     0  0
 11 20  2  0     0  0
 12 21  2  0     0  0
 12 29  1  0     0  0
 13 14  1  0     0  0
 13 22  2  0     0  0
 14 23  2  0     0  0
 16 19  1  0     0  0
 17 19  2  0     0  0
 17 22  1  0     0  0
 18 24  2  0     0  0
 18 25  1  0     0  0
 19 23  1  0     0  0
 20 21  1  0     0  0
 24 26  1  0     0  0
 25 27  2  0     0  0
 26 28  2  0     0  0
 27 28  1  0     0  0
 30 37  1  0     0  0
 31 34  1  0     0  0
 32 35  1  0     0  0
 36 37  1  0     0  0
M  END
> <standard_type>
pIC50

> <# Confs.>
25

> <canonical_smiles>
O=C(C(S1)=CC=C1NC2=NC=NC3=C2C=C(OC)C(OCCCN4CCOCC4)=C3)NC5=CC=CC=C5

> <standard_relation>
=

> <Publication_ID>
nan

> <predicted_activity_value>
7.301029995663981

> <actual_activity_value>
7.2441251443275085

> <Compound>
33

> <standard_units>
nM

> hash
7577093909629082646

$$$$
33_
XXILIB    08252103423D 0   0.00000     0.00000

 37 41  0     1  0            999 V2000
   -7.2560    0.7795    2.2322 S   0  0  0  0  0  2           0  0  0
    1.3657   -0.0000    0.0000 O   0  0  0  0  0  2           0  0  0
   -0.2566    0.0031    2.4241 O   0  0  0  0  0  2           0  0  0
  -10.5611    2.7628    1.7810 O   0  0  0  0  0  2           0  0  0
    3.3677    3.1490    5.8588 O   0  0  0  0  0  2           0  0  0
   -4.7448    0.0963   -1.6573 N   0  0  0  0  0  3           0  0  0
   -2.5447   -0.0063   -2.6044 N   0  0  0  0  0  3           0  0  0
   -5.0790    0.1419    0.7070 N   0  0  0  0  0  3           0  0  0
   -9.6652    1.6297    3.5770 N   0  0  0  0  0  3           0  0  0
    3.4513    2.4242    3.0986 N   0  0  2  0  0  3           0  0  0
   -6.2840    0.7579    0.8129 C   0  0  0  0  0  4           0  0  0
   -8.4832    1.7187    1.4960 C   0  0  0  0  0  4           0  0  0
    0.0000    0.0000    0.0000 C   0  0  0  0  0  4           0  0  0
   -0.7720    0.0000    1.1589 C   0  0  0  0  0  4           0  0  0
   -3.8819    0.0497   -2.6817 C   0  0  0  0  0  4           0  0  0
   -4.2141    0.0704   -0.4091 C   0  0  0  0  0  4           0  0  0
   -2.0139   -0.0056   -1.3751 C   0  0  0  0  0  4           0  0  0
  -10.6915    1.8641    4.5113 C   0  0  0  0  0  4           0  0  0
   -2.8092    0.0380   -0.2112 C   0  0  0  0  0  4           0  0  0
   -6.9088    1.4591   -0.2021 C   0  0  0  0  0  4           0  0  0
   -8.1642    2.0101    0.1860 C   0  0  0  0  0  4           0  0  0
   -0.6278   -0.0336   -1.2481 C   0  0  0  0  0  4           0  0  0
   -2.1635    0.0488    1.0513 C   0  0  0  0  0  4           0  0  0
  -11.8355    2.6072    4.1973 C   0  0  0  0  0  4           0  0  0
  -10.5492    1.3263    5.7958 C   0  0  0  0  0  4           0  0  0
  -12.8275    2.8030    5.1607 C   0  0  0  0  0  4           0  0  0
  -11.5432    1.5247    6.7552 C   0  0  0  0  0  4           0  0  0
  -12.6823    2.2614    6.4374 C   0  0  0  0  0  4           0  0  0
   -9.6522    2.0886    2.2664 C   0  0  0  0  0  4           0  0  0
    1.9816    1.1157    0.6442 C   0  0  0  0  0  4           0  0  0
    3.6729    4.1236    4.8616 C   0  0  0  0  0  4           0  0  0
    2.4782    2.1600    5.3420 C   0  0  0  0  0  4           0  0  0
   -0.0239   -1.2843    2.9900 C   0  0  0  0  0  4           0  0  0
    4.3349    3.4602    3.6583 C   0  0  0  0  0  4           0  0  0
    3.1066    1.4483    4.1463 C   0  0  0  0  0  4           0  0  0
    4.0898    1.7862    1.9453 C   0  0  0  0  0  4           0  0  0
    3.3203    0.6733    1.2212 C   0  0  0  0  0  4           0  0  0
  1 11  1  0     0  0
  1 12  1  0     0  0
  2 13  1  0     0  0
  2 30  1  0     0  0
  3 14  1  0     0  0
  3 33  1  0     0  0
  4 29  2  0     0  0
  5 31  1  0     0  0
  5 32  1  0     0  0
  6 15  1  0     0  0
  6 16  2  0     0  0
  7 15  2  0     0  0
  7 17  1  0     0  0
  8 11  1  0     0  0
  8 16  1  0     0  0
  9 18  1  0     0  0
  9 29  1  0     0  0
 10 34  1  0     0  0
 10 35  1  0     0  0
 10 36  1  0     0  0
 11 20  2  0     0  0
 12 21  2  0     0  0
 12 29  1  0     0  0
 13 14  1  0     0  0
 13 22  2  0     0  0
 14 23  2  0     0  0
 16 19  1  0     0  0
 17 19  2  0     0  0
 17 22  1  0     0  0
 18 24  2  0     0  0
 18 25  1  0     0  0
 19 23  1  0     0  0
 20 21  1  0     0  0
 24 26  1  0     0  0
 25 27  2  0     0  0
 26 28  2  0     0  0
 27 28  1  0     0  0
 30 37  1  0     0  0
 31 34  1  0     0  0
 32 35  1  0     0  0
 36 37  1  0     0  0
M  END
> <standard_type>
pIC50

> <# Confs.>
25

> <canonical_smiles>
O=C(C(S1)=CC=C1NC2=NC=NC3=C2C=C(OC)C(OCCCN4CCOCC4)=C3)NC5=CC=CC=C5

> <standard_relation>
=

> <Publication_ID>
nan

> <predicted_activity_value>
7.301029995663981

> <actual_activity_value>
7.2441251443275085

> <Compound>
33

> <standard_units>
nM

> hash
7577093909629082646

$$$$
33_
XXILIB    08252103423D 0   0.00000     0.00000

 37 41  0     1  0            999 V2000
   -7.5640    0.2443    1.8414 S   0  0  0  0  0  2           0  0  0
    1.3657    0.0000    0.0000 O   0  0  0  0  0  2           0  0  0
   -0.2566    0.0031    2.4241 O   0  0  0  0  0  2           0  0  0
  -10.6983    2.5219    1.6207 O   0  0  0  0  0  2           0  0  0
    6.3336    1.4826   -4.3346 O   0  0  0  0  0  2           0  0  0
   -4.7448    0.0963   -1.6573 N   0  0  0  0  0  3           0  0  0
   -2.5447   -0.0063   -2.6044 N   0  0  0  0  0  3           0  0  0
   -5.0790    0.1419    0.7070 N   0  0  0  0  0  3           0  0  0
  -10.2350    0.6375    2.8642 N   0  0  0  0  0  3           0  0  0
    4.4533    2.0084   -2.2515 N   0  0  2  0  0  3           0  0  0
   -6.2840    0.7579    0.8129 C   0  0  0  0  0  4           0  0  0
   -8.5965    1.5209    1.3574 C   0  0  0  0  0  4           0  0  0
    0.0000    0.0000    0.0000 C   0  0  0  0  0  4           0  0  0
   -0.7720    0.0000    1.1589 C   0  0  0  0  0  4           0  0  0
   -3.8819    0.0497   -2.6817 C   0  0  0  0  0  4           0  0  0
   -4.2141    0.0704   -0.4091 C   0  0  0  0  0  4           0  0  0
   -2.0139   -0.0056   -1.3751 C   0  0  0  0  0  4           0  0  0
  -11.4563    0.5320    3.5559 C   0  0  0  0  0  4           0  0  0
   -2.8092    0.0380   -0.2112 C   0  0  0  0  0  4           0  0  0
   -6.6618    1.8882    0.1117 C   0  0  0  0  0  4           0  0  0
   -7.9815    2.3269    0.4220 C   0  0  0  0  0  4           0  0  0
   -0.6278   -0.0336   -1.2481 C   0  0  0  0  0  4           0  0  0
   -2.1635    0.0488    1.0513 C   0  0  0  0  0  4           0  0  0
  -12.5048    1.4403    3.3681 C   0  0  0  0  0  4           0  0  0
  -11.6133   -0.5258    4.4591 C   0  0  0  0  0  4           0  0  0
  -13.6991    1.2844    4.0752 C   0  0  0  0  0  4           0  0  0
  -12.8087   -0.6774    5.1634 C   0  0  0  0  0  4           0  0  0
  -13.8514    0.2264    4.9705 C   0  0  0  0  0  4           0  0  0
   -9.9198    1.6218    1.9368 C   0  0  0  0  0  4           0  0  0
    1.9816    1.1157    0.6442 C   0  0  0  0  0  4           0  0  0
    5.4430    2.5943   -4.4247 C   0  0  0  0  0  4           0  0  0
    6.6653    1.2110   -2.9734 C   0  0  0  0  0  4           0  0  0
   -0.0239   -1.2843    2.9900 C   0  0  0  0  0  4           0  0  0
    4.1542    2.3032   -3.6626 C   0  0  0  0  0  4           0  0  0
    5.4070    0.8891   -2.1707 C   0  0  0  0  0  4           0  0  0
    3.2152    1.7261   -1.5220 C   0  0  0  0  0  4           0  0  0
    3.3203    1.3942   -0.0275 C   0  0  0  0  0  4           0  0  0
  1 11  1  0     0  0
  1 12  1  0     0  0
  2 13  1  0     0  0
  2 30  1  0     0  0
  3 14  1  0     0  0
  3 33  1  0     0  0
  4 29  2  0     0  0
  5 31  1  0     0  0
  5 32  1  0     0  0
  6 15  1  0     0  0
  6 16  2  0     0  0
  7 15  2  0     0  0
  7 17  1  0     0  0
  8 11  1  0     0  0
  8 16  1  0     0  0
  9 18  1  0     0  0
  9 29  1  0     0  0
 10 34  1  0     0  0
 10 35  1  0     0  0
 10 36  1  0     0  0
 11 20  2  0     0  0
 12 21  2  0     0  0
 12 29  1  0     0  0
 13 14  1  0     0  0
 13 22  2  0     0  0
 14 23  2  0     0  0
 16 19  1  0     0  0
 17 19  2  0     0  0
 17 22  1  0     0  0
 18 24  2  0     0  0
 18 25  1  0     0  0
 19 23  1  0     0  0
 20 21  1  0     0  0
 24 26  1  0     0  0
 25 27  2  0     0  0
 26 28  2  0     0  0
 27 28  1  0     0  0
 30 37  1  0     0  0
 31 34  1  0     0  0
 32 35  1  0     0  0
 36 37  1  0     0  0
M  END
> <standard_type>
pIC50

> <# Confs.>
25

> <canonical_smiles>
O=C(C(S1)=CC=C1NC2=NC=NC3=C2C=C(OC)C(OCCCN4CCOCC4)=C3)NC5=CC=CC=C5

> <standard_relation>
=

> <Publication_ID>
nan

> <predicted_activity_value>
7.301029995663981

> <actual_activity_value>
7.2441251443275085

> <Compound>
33

> <standard_units>
nM

> hash
7577093909629082646

$$$$
33_
XXILIB    08252103423D 0   0.00000     0.00000

 37 41  0     1  0            999 V2000
   -7.2560    0.7795    2.2322 S   0  0  0  0  0  2           0  0  0
    1.3657   -0.0000    0.0000 O   0  0  0  0  0  2           0  0  0
   -0.2566    0.0031    2.4241 O   0  0  0  0  0  2           0  0  0
  -10.5611    2.7628    1.7810 O   0  0  0  0  0  2           0  0  0
    6.1264   -3.7024   -3.8270 O   0  0  0  0  0  2           0  0  0
   -4.7448    0.0963   -1.6573 N   0  0  0  0  0  3           0  0  0
   -2.5447   -0.0063   -2.6044 N   0  0  0  0  0  3           0  0  0
   -5.0790    0.1419    0.7070 N   0  0  0  0  0  3           0  0  0
   -9.6652    1.6297    3.5770 N   0  0  0  0  0  3           0  0  0
    4.4533   -2.0084   -2.2515 N   0  0  2  0  0  3           0  0  0
   -6.2840    0.7579    0.8129 C   0  0  0  0  0  4           0  0  0
   -8.4832    1.7187    1.4960 C   0  0  0  0  0  4           0  0  0
    0.0000    0.0000    0.0000 C   0  0  0  0  0  4           0  0  0
   -0.7720    0.0000    1.1589 C   0  0  0  0  0  4           0  0  0
   -3.8819    0.0497   -2.6817 C   0  0  0  0  0  4           0  0  0
   -4.2141    0.0704   -0.4091 C   0  0  0  0  0  4           0  0  0
   -2.0139   -0.0056   -1.3751 C   0  0  0  0  0  4           0  0  0
  -10.6915    1.8641    4.5113 C   0  0  0  0  0  4           0  0  0
   -2.8092    0.0380   -0.2112 C   0  0  0  0  0  4           0  0  0
   -6.9088    1.4591   -0.2021 C   0  0  0  0  0  4           0  0  0
   -8.1642    2.0101    0.1860 C   0  0  0  0  0  4           0  0  0
   -0.6278   -0.0336   -1.2481 C   0  0  0  0  0  4           0  0  0
   -2.1635    0.0488    1.0513 C   0  0  0  0  0  4           0  0  0
  -11.8355    2.6072    4.1973 C   0  0  0  0  0  4           0  0  0
  -10.5492    1.3263    5.7958 C   0  0  0  0  0  4           0  0  0
  -12.8275    2.8030    5.1607 C   0  0  0  0  0  4           0  0  0
  -11.5432    1.5247    6.7552 C   0  0  0  0  0  4           0  0  0
  -12.6823    2.2614    6.4374 C   0  0  0  0  0  4           0  0  0
   -9.6522    2.0886    2.2664 C   0  0  0  0  0  4           0  0  0
    1.9816   -1.1157    0.6442 C   0  0  0  0  0  4           0  0  0
    5.4424   -2.6007   -4.4232 C   0  0  0  0  0  4           0  0  0
    6.4596   -3.4145   -2.4696 C   0  0  0  0  0  4           0  0  0
   -0.0299    1.2934    2.9860 C   0  0  0  0  0  4           0  0  0
    4.1542   -2.3032   -3.6626 C   0  0  0  0  0  4           0  0  0
    5.1977   -3.1320   -1.6579 C   0  0  0  0  0  4           0  0  0
    3.2152   -1.7261   -1.5220 C   0  0  0  0  0  4           0  0  0
    3.3203   -1.3942   -0.0275 C   0  0  0  0  0  4           0  0  0
  1 11  1  0     0  0
  1 12  1  0     0  0
  2 13  1  0     0  0
  2 30  1  0     0  0
  3 14  1  0     0  0
  3 33  1  0     0  0
  4 29  2  0     0  0
  5 31  1  0     0  0
  5 32  1  0     0  0
  6 15  1  0     0  0
  6 16  2  0     0  0
  7 15  2  0     0  0
  7 17  1  0     0  0
  8 11  1  0     0  0
  8 16  1  0     0  0
  9 18  1  0     0  0
  9 29  1  0     0  0
 10 34  1  0     0  0
 10 35  1  0     0  0
 10 36  1  0     0  0
 11 20  2  0     0  0
 12 21  2  0     0  0
 12 29  1  0     0  0
 13 14  1  0     0  0
 13 22  2  0     0  0
 14 23  2  0     0  0
 16 19  1  0     0  0
 17 19  2  0     0  0
 17 22  1  0     0  0
 18 24  2  0     0  0
 18 25  1  0     0  0
 19 23  1  0     0  0
 20 21  1  0     0  0
 24 26  1  0     0  0
 25 27  2  0     0  0
 26 28  2  0     0  0
 27 28  1  0     0  0
 30 37  1  0     0  0
 31 34  1  0     0  0
 32 35  1  0     0  0
 36 37  1  0     0  0
M  END
> <standard_type>
pIC50

> <# Confs.>
25

> <canonical_smiles>
O=C(C(S1)=CC=C1NC2=NC=NC3=C2C=C(OC)C(OCCCN4CCOCC4)=C3)NC5=CC=CC=C5

> <standard_relation>
=

> <Publication_ID>
nan

> <predicted_activity_value>
7.301029995663981

> <actual_activity_value>
7.2441251443275085

> <Compound>
33

> <standard_units>
nM

> hash
7577093909629082646

$$$$
33_
XXILIB    08252103423D 0   0.00000     0.00000

 37 41  0     1  0            999 V2000
   -7.2560    0.7795    2.2322 S   0  0  0  0  0  2           0  0  0
    1.3657   -0.0000   -0.0000 O   0  0  0  0  0  2           0  0  0
   -0.2566    0.0031    2.4241 O   0  0  0  0  0  2           0  0  0
  -10.5611    2.7628    1.7810 O   0  0  0  0  0  2           0  0  0
    8.2116   -3.3115    0.1670 O   0  0  0  0  0  2           0  0  0
   -4.7448    0.0963   -1.6573 N   0  0  0  0  0  3           0  0  0
   -2.5447   -0.0063   -2.6044 N   0  0  0  0  0  3           0  0  0
   -5.0790    0.1419    0.7070 N   0  0  0  0  0  3           0  0  0
   -9.6652    1.6297    3.5770 N   0  0  0  0  0  3           0  0  0
    5.3891   -2.9197   -0.0085 N   0  0  2  0  0  3           0  0  0
   -6.2840    0.7579    0.8129 C   0  0  0  0  0  4           0  0  0
   -8.4832    1.7187    1.4960 C   0  0  0  0  0  4           0  0  0
    0.0000    0.0000    0.0000 C   0  0  0  0  0  4           0  0  0
   -0.7720    0.0000    1.1589 C   0  0  0  0  0  4           0  0  0
   -3.8819    0.0497   -2.6817 C   0  0  0  0  0  4           0  0  0
   -4.2141    0.0704   -0.4091 C   0  0  0  0  0  4           0  0  0
   -2.0139   -0.0056   -1.3751 C   0  0  0  0  0  4           0  0  0
  -10.6915    1.8641    4.5113 C   0  0  0  0  0  4           0  0  0
   -2.8092    0.0380   -0.2112 C   0  0  0  0  0  4           0  0  0
   -6.9088    1.4591   -0.2021 C   0  0  0  0  0  4           0  0  0
   -8.1642    2.0101    0.1860 C   0  0  0  0  0  4           0  0  0
   -0.6278   -0.0336   -1.2481 C   0  0  0  0  0  4           0  0  0
   -2.1635    0.0488    1.0513 C   0  0  0  0  0  4           0  0  0
  -11.8355    2.6072    4.1973 C   0  0  0  0  0  4           0  0  0
  -10.5492    1.3263    5.7958 C   0  0  0  0  0  4           0  0  0
  -12.8275    2.8030    5.1607 C   0  0  0  0  0  4           0  0  0
  -11.5432    1.5247    6.7552 C   0  0  0  0  0  4           0  0  0
  -12.6823    2.2614    6.4374 C   0  0  0  0  0  4           0  0  0
   -9.6522    2.0886    2.2664 C   0  0  0  0  0  4           0  0  0
    1.9816   -1.1157    0.6442 C   0  0  0  0  0  4           0  0  0
    7.3273   -4.4293    0.0919 C   0  0  0  0  0  4           0  0  0
    7.6777   -2.1969   -0.5466 C   0  0  0  0  0  4           0  0  0
   -0.0299    1.2934    2.9860 C   0  0  0  0  0  4           0  0  0
    5.9724   -4.0737    0.6954 C   0  0  0  0  0  4           0  0  0
    6.3278   -1.7858    0.0365 C   0  0  0  0  0  4           0  0  0
    4.0898   -2.5778    0.5742 C   0  0  0  0  0  4           0  0  0
    3.3203   -1.3942   -0.0275 C   0  0  0  0  0  4           0  0  0
  1 11  1  0     0  0
  1 12  1  0     0  0
  2 13  1  0     0  0
  2 30  1  0     0  0
  3 14  1  0     0  0
  3 33  1  0     0  0
  4 29  2  0     0  0
  5 31  1  0     0  0
  5 32  1  0     0  0
  6 15  1  0     0  0
  6 16  2  0     0  0
  7 15  2  0     0  0
  7 17  1  0     0  0
  8 11  1  0     0  0
  8 16  1  0     0  0
  9 18  1  0     0  0
  9 29  1  0     0  0
 10 34  1  0     0  0
 10 35  1  0     0  0
 10 36  1  0     0  0
 11 20  2  0     0  0
 12 21  2  0     0  0
 12 29  1  0     0  0
 13 14  1  0     0  0
 13 22  2  0     0  0
 14 23  2  0     0  0
 16 19  1  0     0  0
 17 19  2  0     0  0
 17 22  1  0     0  0
 18 24  2  0     0  0
 18 25  1  0     0  0
 19 23  1  0     0  0
 20 21  1  0     0  0
 24 26  1  0     0  0
 25 27  2  0     0  0
 26 28  2  0     0  0
 27 28  1  0     0  0
 30 37  1  0     0  0
 31 34  1  0     0  0
 32 35  1  0     0  0
 36 37  1  0     0  0
M  END
> <standard_type>
pIC50

> <# Confs.>
25

> <canonical_smiles>
O=C(C(S1)=CC=C1NC2=NC=NC3=C2C=C(OC)C(OCCCN4CCOCC4)=C3)NC5=CC=CC=C5

> <standard_relation>
=

> <Publication_ID>
nan

> <predicted_activity_value>
7.301029995663981

> <actual_activity_value>
7.2441251443275085

> <Compound>
33

> <standard_units>
nM

> hash
7577093909629082646

$$$$
33_
XXILIB    08252103423D 0   0.00000     0.00000

 37 41  0     1  0            999 V2000
   -7.2560    0.7795    2.2322 S   0  0  0  0  0  2           0  0  0
    1.3657    0.0000    0.0000 O   0  0  0  0  0  2           0  0  0
   -0.2566    0.0031    2.4241 O   0  0  0  0  0  2           0  0  0
  -10.5611    2.7628    1.7810 O   0  0  0  0  0  2           0  0  0
    7.7757   -2.0735    0.4476 O   0  0  0  0  0  2           0  0  0
   -4.7448    0.0963   -1.6573 N   0  0  0  0  0  3           0  0  0
   -2.5447   -0.0063   -2.6044 N   0  0  0  0  0  3           0  0  0
   -5.0790    0.1419    0.7070 N   0  0  0  0  0  3           0  0  0
   -9.6652    1.6297    3.5770 N   0  0  0  0  0  3           0  0  0
    5.4812   -0.5430    1.1851 N   0  0  2  0  0  3           0  0  0
   -6.2840    0.7579    0.8129 C   0  0  0  0  0  4           0  0  0
   -8.4832    1.7187    1.4960 C   0  0  0  0  0  4           0  0  0
    0.0000    0.0000    0.0000 C   0  0  0  0  0  4           0  0  0
   -0.7720    0.0000    1.1589 C   0  0  0  0  0  4           0  0  0
   -3.8819    0.0497   -2.6817 C   0  0  0  0  0  4           0  0  0
   -4.2141    0.0704   -0.4091 C   0  0  0  0  0  4           0  0  0
   -2.0139   -0.0056   -1.3751 C   0  0  0  0  0  4           0  0  0
  -10.6915    1.8641    4.5113 C   0  0  0  0  0  4           0  0  0
   -2.8092    0.0380   -0.2112 C   0  0  0  0  0  4           0  0  0
   -6.9088    1.4591   -0.2021 C   0  0  0  0  0  4           0  0  0
   -8.1642    2.0101    0.1860 C   0  0  0  0  0  4           0  0  0
   -0.6278   -0.0336   -1.2481 C   0  0  0  0  0  4           0  0  0
   -2.1635    0.0488    1.0513 C   0  0  0  0  0  4           0  0  0
  -11.8355    2.6072    4.1973 C   0  0  0  0  0  4           0  0  0
  -10.5492    1.3263    5.7958 C   0  0  0  0  0  4           0  0  0
  -12.8275    2.8030    5.1607 C   0  0  0  0  0  4           0  0  0
  -11.5432    1.5247    6.7552 C   0  0  0  0  0  4           0  0  0
  -12.6823    2.2614    6.4374 C   0  0  0  0  0  4           0  0  0
   -9.6522    2.0886    2.2664 C   0  0  0  0  0  4           0  0  0
    1.9816    1.1157    0.6442 C   0  0  0  0  0  4           0  0  0
    7.4515   -0.8706   -0.2489 C   0  0  0  0  0  4           0  0  0
    7.3671   -1.9920    1.8125 C   0  0  0  0  0  4           0  0  0
   -0.0239   -1.2843    2.9900 C   0  0  0  0  0  4           0  0  0
    5.9466   -0.6253   -0.2093 C   0  0  0  0  0  4           0  0  0
    5.8595   -1.7698    1.9067 C   0  0  0  0  0  4           0  0  0
    4.0357   -0.3106    1.2212 C   0  0  0  0  0  4           0  0  0
    3.4946    0.9616    0.5552 C   0  0  0  0  0  4           0  0  0
  1 11  1  0     0  0
  1 12  1  0     0  0
  2 13  1  0     0  0
  2 30  1  0     0  0
  3 14  1  0     0  0
  3 33  1  0     0  0
  4 29  2  0     0  0
  5 31  1  0     0  0
  5 32  1  0     0  0
  6 15  1  0     0  0
  6 16  2  0     0  0
  7 15  2  0     0  0
  7 17  1  0     0  0
  8 11  1  0     0  0
  8 16  1  0     0  0
  9 18  1  0     0  0
  9 29  1  0     0  0
 10 34  1  0     0  0
 10 35  1  0     0  0
 10 36  1  0     0  0
 11 20  2  0     0  0
 12 21  2  0     0  0
 12 29  1  0     0  0
 13 14  1  0     0  0
 13 22  2  0     0  0
 14 23  2  0     0  0
 16 19  1  0     0  0
 17 19  2  0     0  0
 17 22  1  0     0  0
 18 24  2  0     0  0
 18 25  1  0     0  0
 19 23  1  0     0  0
 20 21  1  0     0  0
 24 26  1  0     0  0
 25 27  2  0     0  0
 26 28  2  0     0  0
 27 28  1  0     0  0
 30 37  1  0     0  0
 31 34  1  0     0  0
 32 35  1  0     0  0
 36 37  1  0     0  0
M  END
> <standard_type>
pIC50

> <# Confs.>
25

> <canonical_smiles>
O=C(C(S1)=CC=C1NC2=NC=NC3=C2C=C(OC)C(OCCCN4CCOCC4)=C3)NC5=CC=CC=C5

> <standard_relation>
=

> <Publication_ID>
nan

> <predicted_activity_value>
7.301029995663981

> <actual_activity_value>
7.2441251443275085

> <Compound>
33

> <standard_units>
nM

> hash
7577093909629082646

$$$$
33_
XXILIB    08252103423D 0   0.00000     0.00000

 37 41  0     1  0            999 V2000
   -7.2560    0.7795    2.2322 S   0  0  0  0  0  2           0  0  0
    1.3657   -0.0000    0.0000 O   0  0  0  0  0  2           0  0  0
   -0.2566    0.0031    2.4241 O   0  0  0  0  0  2           0  0  0
  -10.5611    2.7628    1.7810 O   0  0  0  0  0  2           0  0  0
    8.2169    3.2759    0.1579 O   0  0  0  0  0  2           0  0  0
   -4.7448    0.0963   -1.6573 N   0  0  0  0  0  3           0  0  0
   -2.5447   -0.0063   -2.6044 N   0  0  0  0  0  3           0  0  0
   -5.0790    0.1419    0.7070 N   0  0  0  0  0  3           0  0  0
   -9.6652    1.6297    3.5770 N   0  0  0  0  0  3           0  0  0
    5.3891    2.9197   -0.0085 N   0  0  2  0  0  3           0  0  0
   -6.2840    0.7579    0.8129 C   0  0  0  0  0  4           0  0  0
   -8.4832    1.7187    1.4960 C   0  0  0  0  0  4           0  0  0
    0.0000    0.0000    0.0000 C   0  0  0  0  0  4           0  0  0
   -0.7720    0.0000    1.1589 C   0  0  0  0  0  4           0  0  0
   -3.8819    0.0497   -2.6817 C   0  0  0  0  0  4           0  0  0
   -4.2141    0.0704   -0.4091 C   0  0  0  0  0  4           0  0  0
   -2.0139   -0.0056   -1.3751 C   0  0  0  0  0  4           0  0  0
  -10.6915    1.8641    4.5113 C   0  0  0  0  0  4           0  0  0
   -2.8092    0.0380   -0.2112 C   0  0  0  0  0  4           0  0  0
   -6.9088    1.4591   -0.2021 C   0  0  0  0  0  4           0  0  0
   -8.1642    2.0101    0.1860 C   0  0  0  0  0  4           0  0  0
   -0.6278   -0.0336   -1.2481 C   0  0  0  0  0  4           0  0  0
   -2.1635    0.0488    1.0513 C   0  0  0  0  0  4           0  0  0
  -11.8355    2.6072    4.1973 C   0  0  0  0  0  4           0  0  0
  -10.5492    1.3263    5.7958 C   0  0  0  0  0  4           0  0  0
  -12.8275    2.8030    5.1607 C   0  0  0  0  0  4           0  0  0
  -11.5432    1.5247    6.7552 C   0  0  0  0  0  4           0  0  0
  -12.6823    2.2614    6.4374 C   0  0  0  0  0  4           0  0  0
   -9.6522    2.0886    2.2664 C   0  0  0  0  0  4           0  0  0
    1.9816    1.1157    0.6442 C   0  0  0  0  0  4           0  0  0
    7.6669    2.1337   -0.4979 C   0  0  0  0  0  4           0  0  0
    7.3515    4.4023    0.0200 C   0  0  0  0  0  4           0  0  0
   -0.0239   -1.2843    2.9900 C   0  0  0  0  0  4           0  0  0
    6.3120    1.7783    0.1057 C   0  0  0  0  0  4           0  0  0
    5.9848    4.1044    0.6322 C   0  0  0  0  0  4           0  0  0
    4.0898    2.5778    0.5742 C   0  0  0  0  0  4           0  0  0
    3.3203    1.3942   -0.0275 C   0  0  0  0  0  4           0  0  0
  1 11  1  0     0  0
  1 12  1  0     0  0
  2 13  1  0     0  0
  2 30  1  0     0  0
  3 14  1  0     0  0
  3 33  1  0     0  0
  4 29  2  0     0  0
  5 31  1  0     0  0
  5 32  1  0     0  0
  6 15  1  0     0  0
  6 16  2  0     0  0
  7 15  2  0     0  0
  7 17  1  0     0  0
  8 11  1  0     0  0
  8 16  1  0     0  0
  9 18  1  0     0  0
  9 29  1  0     0  0
 10 34  1  0     0  0
 10 35  1  0     0  0
 10 36  1  0     0  0
 11 20  2  0     0  0
 12 21  2  0     0  0
 12 29  1  0     0  0
 13 14  1  0     0  0
 13 22  2  0     0  0
 14 23  2  0     0  0
 16 19  1  0     0  0
 17 19  2  0     0  0
 17 22  1  0     0  0
 18 24  2  0     0  0
 18 25  1  0     0  0
 19 23  1  0     0  0
 20 21  1  0     0  0
 24 26  1  0     0  0
 25 27  2  0     0  0
 26 28  2  0     0  0
 27 28  1  0     0  0
 30 37  1  0     0  0
 31 34  1  0     0  0
 32 35  1  0     0  0
 36 37  1  0     0  0
M  END
> <standard_type>
pIC50

> <# Confs.>
25

> <canonical_smiles>
O=C(C(S1)=CC=C1NC2=NC=NC3=C2C=C(OC)C(OCCCN4CCOCC4)=C3)NC5=CC=CC=C5

> <standard_relation>
=

> <Publication_ID>
nan

> <predicted_activity_value>
7.301029995663981

> <actual_activity_value>
7.2441251443275085

> <Compound>
33

> <standard_units>
nM

> hash
7577093909629082646

$$$$
34_
XXILIB    08252103423D 0   0.00000     0.00000

 32 35  0     1  0            999 V2000
   -7.1559   -0.2438    2.3707 S   0  0  0  0  0  2           0  0  0
    1.3663   -0.0000    0.0000 O   0  0  0  0  0  2           0  0  0
   -0.0478   -0.0069    2.3517 O   0  0  0  0  0  2           0  0  0
    6.5788   -1.4389   -4.0284 O   0  0  0  0  0  2           0  0  0
   -7.0509   -0.9046   -0.1129 N   0  0  0  0  0  3           0  0  0
   -4.7492    0.2080   -1.6103 N   0  0  0  0  0  3           0  0  0
   -2.5579    0.1887   -2.5805 N   0  0  0  0  0  3           0  0  0
   -5.0622    0.1000    0.7547 N   0  0  0  0  0  3           0  0  0
    4.5220   -1.9867   -2.1264 N   0  0  1  0  0  3           0  0  0
   -6.3330   -0.3588    0.8510 C   0  0  0  0  0  4           0  0  0
   -8.5461   -0.9676    1.6835 C   0  0  0  0  0  4           0  0  0
    0.0000    0.0000    0.0000 C   0  0  0  0  0  4           0  0  0
   -0.7474    0.0000    1.1776 C   0  0  0  0  0  4           0  0  0
   -3.8959    0.2364   -2.6429 C   0  0  0  0  0  4           0  0  0
   -4.2060    0.1093   -0.3707 C   0  0  0  0  0  4           0  0  0
   -2.0167    0.1147   -1.3576 C   0  0  0  0  0  4           0  0  0
   -8.3019   -1.2498    0.3570 C   0  0  0  0  0  4           0  0  0
   -2.7992    0.0794   -0.1857 C   0  0  0  0  0  4           0  0  0
   -0.6322    0.0784   -1.2439 C   0  0  0  0  0  4           0  0  0
   -2.1421    0.0306    1.0751 C   0  0  0  0  0  4           0  0  0
    1.9812   -1.1160    0.6443 C   0  0  0  0  0  4           0  0  0
    5.7210   -2.5673   -4.1935 C   0  0  0  0  0  4           0  0  0
    6.7743   -1.1491   -2.6450 C   0  0  0  0  0  4           0  0  0
   -0.8435   -0.0067    3.5348 C   0  0  0  0  0  4           0  0  0
    4.3613   -2.2983   -3.5565 C   0  0  0  0  0  4           0  0  0
    5.4395   -0.8458   -1.9693 C   0  0  0  0  0  4           0  0  0
    3.2131   -1.7249   -1.5165 C   0  0  0  0  0  4           0  0  0
   -9.7761   -1.2078    2.4894 C   0  0  0  0  0  4           0  0  0
    3.3198   -1.3947   -0.0273 C   0  0  0  0  0  4           0  0  0
   -9.7559   -2.5794    3.1580 C   0  0  0  0  0  4           0  0  0
  -10.9973   -2.8808    4.0006 C   0  0  0  0  0  4           0  0  0
  -10.9511   -4.2532    4.6551 C   0  0  0  0  0  4           0  0  0
  1 10  1  0     0  0
  1 11  1  0     0  0
  2 12  1  0     0  0
  2 21  1  0     0  0
  3 13  1  0     0  0
  3 24  1  0     0  0
  4 22  1  0     0  0
  4 23  1  0     0  0
  5 10  2  0     0  0
  5 17  1  0     0  0
  6 14  1  0     0  0
  6 15  2  0     0  0
  7 14  2  0     0  0
  7 16  1  0     0  0
  8 10  1  0     0  0
  8 15  1  0     0  0
  9 25  1  0     0  0
  9 26  1  0     0  0
  9 27  1  0     0  0
 11 17  2  0     0  0
 11 28  1  0     0  0
 12 13  1  0     0  0
 12 19  2  0     0  0
 13 20  2  0     0  0
 15 18  1  0     0  0
 16 18  2  0     0  0
 16 19  1  0     0  0
 18 20  1  0     0  0
 21 29  1  0     0  0
 22 25  1  0     0  0
 23 26  1  0     0  0
 27 29  1  0     0  0
 28 30  1  0     0  0
 30 31  1  0     0  0
 31 32  1  0     0  0
M  END
> <standard_type>
pIC50

> <# Confs.>
25

> <canonical_smiles>
COC1=CC2=C(C=C1OCCCN3CCOCC3)N=CN=C2NC4=NC=C(CCCC)S4

> <standard_relation>
=

> <Publication_ID>
nan

> <predicted_activity_value>
6.920818753952375

> <actual_activity_value>
7.200659450546418

> <Compound>
34

> <standard_units>
nM

> hash
5219477090331228072

$$$$
34_
XXILIB    08252103423D 0   0.00000     0.00000

 32 35  0     1  0            999 V2000
   -7.1559   -0.2438    2.3707 S   0  0  0  0  0  2           0  0  0
    1.3663   -0.0000   -0.0000 O   0  0  0  0  0  2           0  0  0
   -0.0478   -0.0069    2.3517 O   0  0  0  0  0  2           0  0  0
    6.2205   -2.1428    4.1749 O   0  0  0  0  0  2           0  0  0
   -7.0509   -0.9046   -0.1129 N   0  0  0  0  0  3           0  0  0
   -4.7492    0.2080   -1.6103 N   0  0  0  0  0  3           0  0  0
   -2.5579    0.1887   -2.5805 N   0  0  0  0  0  3           0  0  0
   -5.0622    0.1000    0.7547 N   0  0  0  0  0  3           0  0  0
    4.3933   -2.3760    1.9943 N   0  0  1  0  0  3           0  0  0
   -6.3330   -0.3588    0.8510 C   0  0  0  0  0  4           0  0  0
   -8.5461   -0.9676    1.6835 C   0  0  0  0  0  4           0  0  0
    0.0000    0.0000    0.0000 C   0  0  0  0  0  4           0  0  0
   -0.7474    0.0000    1.1776 C   0  0  0  0  0  4           0  0  0
   -3.8959    0.2364   -2.6429 C   0  0  0  0  0  4           0  0  0
   -4.2060    0.1093   -0.3707 C   0  0  0  0  0  4           0  0  0
   -2.0167    0.1147   -1.3576 C   0  0  0  0  0  4           0  0  0
   -8.3019   -1.2498    0.3570 C   0  0  0  0  0  4           0  0  0
   -2.7992    0.0794   -0.1857 C   0  0  0  0  0  4           0  0  0
   -0.6322    0.0784   -1.2439 C   0  0  0  0  0  4           0  0  0
   -2.1421    0.0306    1.0751 C   0  0  0  0  0  4           0  0  0
    1.9812   -1.1160    0.6443 C   0  0  0  0  0  4           0  0  0
    5.4531   -3.3326    3.9966 C   0  0  0  0  0  4           0  0  0
    5.5039   -1.0023    3.7039 C   0  0  0  0  0  4           0  0  0
   -0.8435   -0.0067    3.5348 C   0  0  0  0  0  4           0  0  0
    5.1280   -3.5384    2.5205 C   0  0  0  0  0  4           0  0  0
    5.1791   -1.1513    2.2198 C   0  0  0  0  0  4           0  0  0
    4.0846   -2.5747    0.5733 C   0  0  0  0  0  4           0  0  0
   -9.7761   -1.2078    2.4894 C   0  0  0  0  0  4           0  0  0
    3.3198   -1.3947   -0.0273 C   0  0  0  0  0  4           0  0  0
   -9.7559   -2.5794    3.1580 C   0  0  0  0  0  4           0  0  0
  -10.9973   -2.8808    4.0006 C   0  0  0  0  0  4           0  0  0
  -10.9511   -4.2532    4.6551 C   0  0  0  0  0  4           0  0  0
  1 10  1  0     0  0
  1 11  1  0     0  0
  2 12  1  0     0  0
  2 21  1  0     0  0
  3 13  1  0     0  0
  3 24  1  0     0  0
  4 22  1  0     0  0
  4 23  1  0     0  0
  5 10  2  0     0  0
  5 17  1  0     0  0
  6 14  1  0     0  0
  6 15  2  0     0  0
  7 14  2  0     0  0
  7 16  1  0     0  0
  8 10  1  0     0  0
  8 15  1  0     0  0
  9 25  1  0     0  0
  9 26  1  0     0  0
  9 27  1  0     0  0
 11 17  2  0     0  0
 11 28  1  0     0  0
 12 13  1  0     0  0
 12 19  2  0     0  0
 13 20  2  0     0  0
 15 18  1  0     0  0
 16 18  2  0     0  0
 16 19  1  0     0  0
 18 20  1  0     0  0
 21 29  1  0     0  0
 22 25  1  0     0  0
 23 26  1  0     0  0
 27 29  1  0     0  0
 28 30  1  0     0  0
 30 31  1  0     0  0
 31 32  1  0     0  0
M  END
> <standard_type>
pIC50

> <# Confs.>
25

> <canonical_smiles>
COC1=CC2=C(C=C1OCCCN3CCOCC3)N=CN=C2NC4=NC=C(CCCC)S4

> <standard_relation>
=

> <Publication_ID>
nan

> <predicted_activity_value>
6.920818753952375

> <actual_activity_value>
7.200659450546418

> <Compound>
34

> <standard_units>
nM

> hash
5219477090331228072

$$$$
34_
XXILIB    08252103423D 0   0.00000     0.00000

 32 35  0     1  0            999 V2000
   -7.1559   -0.2438    2.3707 S   0  0  0  0  0  2           0  0  0
    1.3663   -0.0000    0.0000 O   0  0  0  0  0  2           0  0  0
   -0.0478   -0.0069    2.3517 O   0  0  0  0  0  2           0  0  0
    6.5788   -1.4389   -4.0284 O   0  0  0  0  0  2           0  0  0
   -7.0509   -0.9046   -0.1129 N   0  0  0  0  0  3           0  0  0
   -4.7492    0.2080   -1.6103 N   0  0  0  0  0  3           0  0  0
   -2.5579    0.1887   -2.5805 N   0  0  0  0  0  3           0  0  0
   -5.0622    0.1000    0.7547 N   0  0  0  0  0  3           0  0  0
    4.5220   -1.9867   -2.1264 N   0  0  1  0  0  3           0  0  0
   -6.3330   -0.3588    0.8510 C   0  0  0  0  0  4           0  0  0
   -8.5461   -0.9676    1.6835 C   0  0  0  0  0  4           0  0  0
    0.0000    0.0000    0.0000 C   0  0  0  0  0  4           0  0  0
   -0.7474    0.0000    1.1776 C   0  0  0  0  0  4           0  0  0
   -3.8959    0.2364   -2.6429 C   0  0  0  0  0  4           0  0  0
   -4.2060    0.1093   -0.3707 C   0  0  0  0  0  4           0  0  0
   -2.0167    0.1147   -1.3576 C   0  0  0  0  0  4           0  0  0
   -8.3019   -1.2498    0.3570 C   0  0  0  0  0  4           0  0  0
   -2.7992    0.0794   -0.1857 C   0  0  0  0  0  4           0  0  0
   -0.6322    0.0784   -1.2439 C   0  0  0  0  0  4           0  0  0
   -2.1421    0.0306    1.0751 C   0  0  0  0  0  4           0  0  0
    1.9812   -1.1160    0.6443 C   0  0  0  0  0  4           0  0  0
    5.7210   -2.5673   -4.1935 C   0  0  0  0  0  4           0  0  0
    6.7743   -1.1491   -2.6450 C   0  0  0  0  0  4           0  0  0
   -0.8435   -0.0067    3.5348 C   0  0  0  0  0  4           0  0  0
    4.3613   -2.2983   -3.5565 C   0  0  0  0  0  4           0  0  0
    5.4395   -0.8458   -1.9693 C   0  0  0  0  0  4           0  0  0
    3.2131   -1.7249   -1.5165 C   0  0  0  0  0  4           0  0  0
   -9.7761   -1.2078    2.4894 C   0  0  0  0  0  4           0  0  0
    3.3198   -1.3947   -0.0273 C   0  0  0  0  0  4           0  0  0
  -10.7308   -0.0187    2.4332 C   0  0  0  0  0  4           0  0  0
  -12.0140   -0.2103    3.2447 C   0  0  0  0  0  4           0  0  0
  -12.9469    0.9890    3.1713 C   0  0  0  0  0  4           0  0  0
  1 10  1  0     0  0
  1 11  1  0     0  0
  2 12  1  0     0  0
  2 21  1  0     0  0
  3 13  1  0     0  0
  3 24  1  0     0  0
  4 22  1  0     0  0
  4 23  1  0     0  0
  5 10  2  0     0  0
  5 17  1  0     0  0
  6 14  1  0     0  0
  6 15  2  0     0  0
  7 14  2  0     0  0
  7 16  1  0     0  0
  8 10  1  0     0  0
  8 15  1  0     0  0
  9 25  1  0     0  0
  9 26  1  0     0  0
  9 27  1  0     0  0
 11 17  2  0     0  0
 11 28  1  0     0  0
 12 13  1  0     0  0
 12 19  2  0     0  0
 13 20  2  0     0  0
 15 18  1  0     0  0
 16 18  2  0     0  0
 16 19  1  0     0  0
 18 20  1  0     0  0
 21 29  1  0     0  0
 22 25  1  0     0  0
 23 26  1  0     0  0
 27 29  1  0     0  0
 28 30  1  0     0  0
 30 31  1  0     0  0
 31 32  1  0     0  0
M  END
> <standard_type>
pIC50

> <# Confs.>
25

> <canonical_smiles>
COC1=CC2=C(C=C1OCCCN3CCOCC3)N=CN=C2NC4=NC=C(CCCC)S4

> <standard_relation>
=

> <Publication_ID>
nan

> <predicted_activity_value>
6.920818753952375

> <actual_activity_value>
7.200659450546418

> <Compound>
34

> <standard_units>
nM

> hash
5219477090331228072

$$$$
34_
XXILIB    08252103423D 0   0.00000     0.00000

 32 35  0     1  0            999 V2000
   -7.1559   -0.2438    2.3707 S   0  0  0  0  0  2           0  0  0
    1.3663   -0.0000   -0.0000 O   0  0  0  0  0  2           0  0  0
   -0.0478   -0.0069    2.3517 O   0  0  0  0  0  2           0  0  0
    6.2205   -2.1428    4.1749 O   0  0  0  0  0  2           0  0  0
   -7.0509   -0.9046   -0.1129 N   0  0  0  0  0  3           0  0  0
   -4.7492    0.2080   -1.6103 N   0  0  0  0  0  3           0  0  0
   -2.5579    0.1887   -2.5805 N   0  0  0  0  0  3           0  0  0
   -5.0622    0.1000    0.7547 N   0  0  0  0  0  3           0  0  0
    4.3933   -2.3760    1.9943 N   0  0  1  0  0  3           0  0  0
   -6.3330   -0.3588    0.8510 C   0  0  0  0  0  4           0  0  0
   -8.5461   -0.9676    1.6835 C   0  0  0  0  0  4           0  0  0
    0.0000    0.0000    0.0000 C   0  0  0  0  0  4           0  0  0
   -0.7474    0.0000    1.1776 C   0  0  0  0  0  4           0  0  0
   -3.8959    0.2364   -2.6429 C   0  0  0  0  0  4           0  0  0
   -4.2060    0.1093   -0.3707 C   0  0  0  0  0  4           0  0  0
   -2.0167    0.1147   -1.3576 C   0  0  0  0  0  4           0  0  0
   -8.3019   -1.2498    0.3570 C   0  0  0  0  0  4           0  0  0
   -2.7992    0.0794   -0.1857 C   0  0  0  0  0  4           0  0  0
   -0.6322    0.0784   -1.2439 C   0  0  0  0  0  4           0  0  0
   -2.1421    0.0306    1.0751 C   0  0  0  0  0  4           0  0  0
    1.9812   -1.1160    0.6443 C   0  0  0  0  0  4           0  0  0
    5.4531   -3.3326    3.9966 C   0  0  0  0  0  4           0  0  0
    5.5039   -1.0023    3.7039 C   0  0  0  0  0  4           0  0  0
   -0.8435   -0.0067    3.5348 C   0  0  0  0  0  4           0  0  0
    5.1280   -3.5384    2.5205 C   0  0  0  0  0  4           0  0  0
    5.1791   -1.1513    2.2198 C   0  0  0  0  0  4           0  0  0
    4.0846   -2.5747    0.5733 C   0  0  0  0  0  4           0  0  0
   -9.7761   -1.2078    2.4894 C   0  0  0  0  0  4           0  0  0
    3.3198   -1.3947   -0.0273 C   0  0  0  0  0  4           0  0  0
  -10.7308   -0.0187    2.4332 C   0  0  0  0  0  4           0  0  0
  -12.0140   -0.2103    3.2447 C   0  0  0  0  0  4           0  0  0
  -12.9469    0.9890    3.1713 C   0  0  0  0  0  4           0  0  0
  1 10  1  0     0  0
  1 11  1  0     0  0
  2 12  1  0     0  0
  2 21  1  0     0  0
  3 13  1  0     0  0
  3 24  1  0     0  0
  4 22  1  0     0  0
  4 23  1  0     0  0
  5 10  2  0     0  0
  5 17  1  0     0  0
  6 14  1  0     0  0
  6 15  2  0     0  0
  7 14  2  0     0  0
  7 16  1  0     0  0
  8 10  1  0     0  0
  8 15  1  0     0  0
  9 25  1  0     0  0
  9 26  1  0     0  0
  9 27  1  0     0  0
 11 17  2  0     0  0
 11 28  1  0     0  0
 12 13  1  0     0  0
 12 19  2  0     0  0
 13 20  2  0     0  0
 15 18  1  0     0  0
 16 18  2  0     0  0
 16 19  1  0     0  0
 18 20  1  0     0  0
 21 29  1  0     0  0
 22 25  1  0     0  0
 23 26  1  0     0  0
 27 29  1  0     0  0
 28 30  1  0     0  0
 30 31  1  0     0  0
 31 32  1  0     0  0
M  END
> <standard_type>
pIC50

> <# Confs.>
25

> <canonical_smiles>
COC1=CC2=C(C=C1OCCCN3CCOCC3)N=CN=C2NC4=NC=C(CCCC)S4

> <standard_relation>
=

> <Publication_ID>
nan

> <predicted_activity_value>
6.920818753952375

> <actual_activity_value>
7.200659450546418

> <Compound>
34

> <standard_units>
nM

> hash
5219477090331228072

$$$$
34_
XXILIB    08252103423D 0   0.00000     0.00000

 32 35  0     1  0            999 V2000
   -7.1559   -0.2438    2.3707 S   0  0  0  0  0  2           0  0  0
    1.3663   -0.0000   -0.0000 O   0  0  0  0  0  2           0  0  0
   -0.0478   -0.0069    2.3517 O   0  0  0  0  0  2           0  0  0
    3.0056   -6.5233   -0.4085 O   0  0  0  0  0  2           0  0  0
   -7.0509   -0.9046   -0.1129 N   0  0  0  0  0  3           0  0  0
   -4.7492    0.2080   -1.6103 N   0  0  0  0  0  3           0  0  0
   -2.5579    0.1887   -2.5805 N   0  0  0  0  0  3           0  0  0
   -5.0622    0.1000    0.7547 N   0  0  0  0  0  3           0  0  0
    3.3327   -3.8319    0.4847 N   0  0  1  0  0  3           0  0  0
   -6.3330   -0.3588    0.8510 C   0  0  0  0  0  4           0  0  0
   -8.5461   -0.9676    1.6835 C   0  0  0  0  0  4           0  0  0
    0.0000    0.0000    0.0000 C   0  0  0  0  0  4           0  0  0
   -0.7474    0.0000    1.1776 C   0  0  0  0  0  4           0  0  0
   -3.8959    0.2364   -2.6429 C   0  0  0  0  0  4           0  0  0
   -4.2060    0.1093   -0.3707 C   0  0  0  0  0  4           0  0  0
   -2.0167    0.1147   -1.3576 C   0  0  0  0  0  4           0  0  0
   -8.3019   -1.2498    0.3570 C   0  0  0  0  0  4           0  0  0
   -2.7992    0.0794   -0.1857 C   0  0  0  0  0  4           0  0  0
   -0.6322    0.0784   -1.2439 C   0  0  0  0  0  4           0  0  0
   -2.1421    0.0306    1.0751 C   0  0  0  0  0  4           0  0  0
    1.9812   -1.1160    0.6443 C   0  0  0  0  0  4           0  0  0
    2.2709   -5.4629   -1.0186 C   0  0  0  0  0  4           0  0  0
    3.2541   -6.2410    0.9680 C   0  0  0  0  0  4           0  0  0
   -0.8435   -0.0067    3.5348 C   0  0  0  0  0  4           0  0  0
    3.0493   -4.1545   -0.9237 C   0  0  0  0  0  4           0  0  0
    4.0565   -4.9504    1.1119 C   0  0  0  0  0  4           0  0  0
    4.0846   -2.5747    0.5733 C   0  0  0  0  0  4           0  0  0
   -9.7761   -1.2078    2.4894 C   0  0  0  0  0  4           0  0  0
    3.3198   -1.3947   -0.0273 C   0  0  0  0  0  4           0  0  0
   -9.7559   -2.5794    3.1580 C   0  0  0  0  0  4           0  0  0
  -10.9973   -2.8808    4.0006 C   0  0  0  0  0  4           0  0  0
  -10.9511   -4.2532    4.6551 C   0  0  0  0  0  4           0  0  0
  1 10  1  0     0  0
  1 11  1  0     0  0
  2 12  1  0     0  0
  2 21  1  0     0  0
  3 13  1  0     0  0
  3 24  1  0     0  0
  4 22  1  0     0  0
  4 23  1  0     0  0
  5 10  2  0     0  0
  5 17  1  0     0  0
  6 14  1  0     0  0
  6 15  2  0     0  0
  7 14  2  0     0  0
  7 16  1  0     0  0
  8 10  1  0     0  0
  8 15  1  0     0  0
  9 25  1  0     0  0
  9 26  1  0     0  0
  9 27  1  0     0  0
 11 17  2  0     0  0
 11 28  1  0     0  0
 12 13  1  0     0  0
 12 19  2  0     0  0
 13 20  2  0     0  0
 15 18  1  0     0  0
 16 18  2  0     0  0
 16 19  1  0     0  0
 18 20  1  0     0  0
 21 29  1  0     0  0
 22 25  1  0     0  0
 23 26  1  0     0  0
 27 29  1  0     0  0
 28 30  1  0     0  0
 30 31  1  0     0  0
 31 32  1  0     0  0
M  END
> <standard_type>
pIC50

> <# Confs.>
25

> <canonical_smiles>
COC1=CC2=C(C=C1OCCCN3CCOCC3)N=CN=C2NC4=NC=C(CCCC)S4

> <standard_relation>
=

> <Publication_ID>
nan

> <predicted_activity_value>
6.920818753952375

> <actual_activity_value>
7.200659450546418

> <Compound>
34

> <standard_units>
nM

> hash
5219477090331228072

$$$$
34_
XXILIB    08252103423D 0   0.00000     0.00000

 32 35  0     1  0            999 V2000
   -7.1559   -0.2438    2.3707 S   0  0  0  0  0  2           0  0  0
    1.3663   -0.0000   -0.0000 O   0  0  0  0  0  2           0  0  0
   -0.0478   -0.0069    2.3517 O   0  0  0  0  0  2           0  0  0
    3.0056   -6.5233   -0.4085 O   0  0  0  0  0  2           0  0  0
   -7.0509   -0.9046   -0.1129 N   0  0  0  0  0  3           0  0  0
   -4.7492    0.2080   -1.6103 N   0  0  0  0  0  3           0  0  0
   -2.5579    0.1887   -2.5805 N   0  0  0  0  0  3           0  0  0
   -5.0622    0.1000    0.7547 N   0  0  0  0  0  3           0  0  0
    3.3327   -3.8319    0.4847 N   0  0  1  0  0  3           0  0  0
   -6.3330   -0.3588    0.8510 C   0  0  0  0  0  4           0  0  0
   -8.5461   -0.9676    1.6835 C   0  0  0  0  0  4           0  0  0
    0.0000    0.0000    0.0000 C   0  0  0  0  0  4           0  0  0
   -0.7474    0.0000    1.1776 C   0  0  0  0  0  4           0  0  0
   -3.8959    0.2364   -2.6429 C   0  0  0  0  0  4           0  0  0
   -4.2060    0.1093   -0.3707 C   0  0  0  0  0  4           0  0  0
   -2.0167    0.1147   -1.3576 C   0  0  0  0  0  4           0  0  0
   -8.3019   -1.2498    0.3570 C   0  0  0  0  0  4           0  0  0
   -2.7992    0.0794   -0.1857 C   0  0  0  0  0  4           0  0  0
   -0.6322    0.0784   -1.2439 C   0  0  0  0  0  4           0  0  0
   -2.1421    0.0306    1.0751 C   0  0  0  0  0  4           0  0  0
    1.9812   -1.1160    0.6443 C   0  0  0  0  0  4           0  0  0
    2.2709   -5.4629   -1.0186 C   0  0  0  0  0  4           0  0  0
    3.2541   -6.2410    0.9680 C   0  0  0  0  0  4           0  0  0
   -0.8435   -0.0067    3.5348 C   0  0  0  0  0  4           0  0  0
    3.0493   -4.1545   -0.9237 C   0  0  0  0  0  4           0  0  0
    4.0565   -4.9504    1.1119 C   0  0  0  0  0  4           0  0  0
    4.0846   -2.5747    0.5733 C   0  0  0  0  0  4           0  0  0
   -9.7761   -1.2078    2.4894 C   0  0  0  0  0  4           0  0  0
    3.3198   -1.3947   -0.0273 C   0  0  0  0  0  4           0  0  0
  -10.7308   -0.0187    2.4332 C   0  0  0  0  0  4           0  0  0
  -12.0140   -0.2103    3.2447 C   0  0  0  0  0  4           0  0  0
  -12.9469    0.9890    3.1713 C   0  0  0  0  0  4           0  0  0
  1 10  1  0     0  0
  1 11  1  0     0  0
  2 12  1  0     0  0
  2 21  1  0     0  0
  3 13  1  0     0  0
  3 24  1  0     0  0
  4 22  1  0     0  0
  4 23  1  0     0  0
  5 10  2  0     0  0
  5 17  1  0     0  0
  6 14  1  0     0  0
  6 15  2  0     0  0
  7 14  2  0     0  0
  7 16  1  0     0  0
  8 10  1  0     0  0
  8 15  1  0     0  0
  9 25  1  0     0  0
  9 26  1  0     0  0
  9 27  1  0     0  0
 11 17  2  0     0  0
 11 28  1  0     0  0
 12 13  1  0     0  0
 12 19  2  0     0  0
 13 20  2  0     0  0
 15 18  1  0     0  0
 16 18  2  0     0  0
 16 19  1  0     0  0
 18 20  1  0     0  0
 21 29  1  0     0  0
 22 25  1  0     0  0
 23 26  1  0     0  0
 27 29  1  0     0  0
 28 30  1  0     0  0
 30 31  1  0     0  0
 31 32  1  0     0  0
M  END
> <standard_type>
pIC50

> <# Confs.>
25

> <canonical_smiles>
COC1=CC2=C(C=C1OCCCN3CCOCC3)N=CN=C2NC4=NC=C(CCCC)S4

> <standard_relation>
=

> <Publication_ID>
nan

> <predicted_activity_value>
6.920818753952375

> <actual_activity_value>
7.200659450546418

> <Compound>
34

> <standard_units>
nM

> hash
5219477090331228072

$$$$
34_
XXILIB    08252103423D 0   0.00000     0.00000

 32 35  0     1  0            999 V2000
   -7.1559   -0.2438    2.3707 S   0  0  0  0  0  2           0  0  0
    1.3663    0.0000   -0.0000 O   0  0  0  0  0  2           0  0  0
   -0.0478   -0.0069    2.3517 O   0  0  0  0  0  2           0  0  0
    3.0212    6.5347   -0.3791 O   0  0  0  0  0  2           0  0  0
   -7.0509   -0.9046   -0.1129 N   0  0  0  0  0  3           0  0  0
   -4.7492    0.2080   -1.6103 N   0  0  0  0  0  3           0  0  0
   -2.5579    0.1887   -2.5805 N   0  0  0  0  0  3           0  0  0
   -5.0622    0.1000    0.7547 N   0  0  0  0  0  3           0  0  0
    3.3327    3.8319    0.4847 N   0  0  1  0  0  3           0  0  0
   -6.3330   -0.3588    0.8510 C   0  0  0  0  0  4           0  0  0
   -8.5461   -0.9676    1.6835 C   0  0  0  0  0  4           0  0  0
    0.0000    0.0000    0.0000 C   0  0  0  0  0  4           0  0  0
   -0.7474    0.0000    1.1776 C   0  0  0  0  0  4           0  0  0
   -3.8959    0.2364   -2.6429 C   0  0  0  0  0  4           0  0  0
   -4.2060    0.1093   -0.3707 C   0  0  0  0  0  4           0  0  0
   -2.0167    0.1147   -1.3576 C   0  0  0  0  0  4           0  0  0
   -8.3019   -1.2498    0.3570 C   0  0  0  0  0  4           0  0  0
   -2.7992    0.0794   -0.1857 C   0  0  0  0  0  4           0  0  0
   -0.6322    0.0784   -1.2439 C   0  0  0  0  0  4           0  0  0
   -2.1421    0.0306    1.0751 C   0  0  0  0  0  4           0  0  0
    1.9812    1.1160    0.6443 C   0  0  0  0  0  4           0  0  0
    3.3350    6.2403    0.9815 C   0  0  0  0  0  4           0  0  0
    2.2318    5.4940   -0.9536 C   0  0  0  0  0  4           0  0  0
   -0.8435   -0.0067    3.5348 C   0  0  0  0  0  4           0  0  0
    4.1130    4.9317    1.0758 C   0  0  0  0  0  4           0  0  0
    2.9830    4.1660   -0.9061 C   0  0  0  0  0  4           0  0  0
    4.0846    2.5747    0.5733 C   0  0  0  0  0  4           0  0  0
   -9.7761   -1.2078    2.4894 C   0  0  0  0  0  4           0  0  0
    3.3198    1.3947   -0.0273 C   0  0  0  0  0  4           0  0  0
   -9.7559   -2.5794    3.1580 C   0  0  0  0  0  4           0  0  0
  -10.9973   -2.8808    4.0006 C   0  0  0  0  0  4           0  0  0
  -10.9511   -4.2532    4.6551 C   0  0  0  0  0  4           0  0  0
  1 10  1  0     0  0
  1 11  1  0     0  0
  2 12  1  0     0  0
  2 21  1  0     0  0
  3 13  1  0     0  0
  3 24  1  0     0  0
  4 22  1  0     0  0
  4 23  1  0     0  0
  5 10  2  0     0  0
  5 17  1  0     0  0
  6 14  1  0     0  0
  6 15  2  0     0  0
  7 14  2  0     0  0
  7 16  1  0     0  0
  8 10  1  0     0  0
  8 15  1  0     0  0
  9 25  1  0     0  0
  9 26  1  0     0  0
  9 27  1  0     0  0
 11 17  2  0     0  0
 11 28  1  0     0  0
 12 13  1  0     0  0
 12 19  2  0     0  0
 13 20  2  0     0  0
 15 18  1  0     0  0
 16 18  2  0     0  0
 16 19  1  0     0  0
 18 20  1  0     0  0
 21 29  1  0     0  0
 22 25  1  0     0  0
 23 26  1  0     0  0
 27 29  1  0     0  0
 28 30  1  0     0  0
 30 31  1  0     0  0
 31 32  1  0     0  0
M  END
> <standard_type>
pIC50

> <# Confs.>
25

> <canonical_smiles>
COC1=CC2=C(C=C1OCCCN3CCOCC3)N=CN=C2NC4=NC=C(CCCC)S4

> <standard_relation>
=

> <Publication_ID>
nan

> <predicted_activity_value>
6.920818753952375

> <actual_activity_value>
7.200659450546418

> <Compound>
34

> <standard_units>
nM

> hash
5219477090331228072

$$$$
34_
XXILIB    08252103423D 0   0.00000     0.00000

 32 35  0     1  0            999 V2000
   -7.1559   -0.2438    2.3707 S   0  0  0  0  0  2           0  0  0
    1.3663   -0.0000   -0.0000 O   0  0  0  0  0  2           0  0  0
   -0.0478   -0.0069    2.3517 O   0  0  0  0  0  2           0  0  0
    7.1836   -4.4454   -1.5753 O   0  0  0  0  0  2           0  0  0
   -7.0509   -0.9046   -0.1129 N   0  0  0  0  0  3           0  0  0
   -4.7492    0.2080   -1.6103 N   0  0  0  0  0  3           0  0  0
   -2.5579    0.1887   -2.5805 N   0  0  0  0  0  3           0  0  0
   -5.0622    0.1000    0.7547 N   0  0  0  0  0  3           0  0  0
    5.3672   -2.8108   -0.1000 N   0  0  1  0  0  3           0  0  0
   -6.3330   -0.3588    0.8510 C   0  0  0  0  0  4           0  0  0
   -8.5461   -0.9676    1.6835 C   0  0  0  0  0  4           0  0  0
    0.0000    0.0000    0.0000 C   0  0  0  0  0  4           0  0  0
   -0.7474    0.0000    1.1776 C   0  0  0  0  0  4           0  0  0
   -3.8959    0.2364   -2.6429 C   0  0  0  0  0  4           0  0  0
   -4.2060    0.1093   -0.3707 C   0  0  0  0  0  4           0  0  0
   -2.0167    0.1147   -1.3576 C   0  0  0  0  0  4           0  0  0
   -8.3019   -1.2498    0.3570 C   0  0  0  0  0  4           0  0  0
   -2.7992    0.0794   -0.1857 C   0  0  0  0  0  4           0  0  0
   -0.6322    0.0784   -1.2439 C   0  0  0  0  0  4           0  0  0
   -2.1421    0.0306    1.0751 C   0  0  0  0  0  4           0  0  0
    1.9812   -1.1160    0.6443 C   0  0  0  0  0  4           0  0  0
    7.3917   -4.2041   -0.1843 C   0  0  0  0  0  4           0  0  0
    6.5470   -3.3281   -2.1937 C   0  0  0  0  0  4           0  0  0
   -0.8435   -0.0067    3.5348 C   0  0  0  0  0  4           0  0  0
    6.0600   -3.9545    0.5163 C   0  0  0  0  0  4           0  0  0
    5.1939   -3.0563   -1.5415 C   0  0  0  0  0  4           0  0  0
    4.0846   -2.5747    0.5733 C   0  0  0  0  0  4           0  0  0
   -9.7761   -1.2078    2.4894 C   0  0  0  0  0  4           0  0  0
    3.3198   -1.3947   -0.0273 C   0  0  0  0  0  4           0  0  0
   -9.7559   -2.5794    3.1580 C   0  0  0  0  0  4           0  0  0
  -10.9973   -2.8808    4.0006 C   0  0  0  0  0  4           0  0  0
  -10.9511   -4.2532    4.6551 C   0  0  0  0  0  4           0  0  0
  1 10  1  0     0  0
  1 11  1  0     0  0
  2 12  1  0     0  0
  2 21  1  0     0  0
  3 13  1  0     0  0
  3 24  1  0     0  0
  4 22  1  0     0  0
  4 23  1  0     0  0
  5 10  2  0     0  0
  5 17  1  0     0  0
  6 14  1  0     0  0
  6 15  2  0     0  0
  7 14  2  0     0  0
  7 16  1  0     0  0
  8 10  1  0     0  0
  8 15  1  0     0  0
  9 25  1  0     0  0
  9 26  1  0     0  0
  9 27  1  0     0  0
 11 17  2  0     0  0
 11 28  1  0     0  0
 12 13  1  0     0  0
 12 19  2  0     0  0
 13 20  2  0     0  0
 15 18  1  0     0  0
 16 18  2  0     0  0
 16 19  1  0     0  0
 18 20  1  0     0  0
 21 29  1  0     0  0
 22 25  1  0     0  0
 23 26  1  0     0  0
 27 29  1  0     0  0
 28 30  1  0     0  0
 30 31  1  0     0  0
 31 32  1  0     0  0
M  END
> <standard_type>
pIC50

> <# Confs.>
25

> <canonical_smiles>
COC1=CC2=C(C=C1OCCCN3CCOCC3)N=CN=C2NC4=NC=C(CCCC)S4

> <standard_relation>
=

> <Publication_ID>
nan

> <predicted_activity_value>
6.920818753952375

> <actual_activity_value>
7.200659450546418

> <Compound>
34

> <standard_units>
nM

> hash
5219477090331228072

$$$$
34_
XXILIB    08252103423D 0   0.00000     0.00000

 32 35  0     1  0            999 V2000
   -7.1559   -0.2438    2.3707 S   0  0  0  0  0  2           0  0  0
    1.3663   -0.0000   -0.0000 O   0  0  0  0  0  2           0  0  0
   -0.0478   -0.0069    2.3517 O   0  0  0  0  0  2           0  0  0
    8.4178   -0.8444   -0.6097 O   0  0  0  0  0  2           0  0  0
   -7.0509   -0.9046   -0.1129 N   0  0  0  0  0  3           0  0  0
   -4.7492    0.2080   -1.6103 N   0  0  0  0  0  3           0  0  0
   -2.5579    0.1887   -2.5805 N   0  0  0  0  0  3           0  0  0
   -5.0622    0.1000    0.7547 N   0  0  0  0  0  3           0  0  0
    5.5803   -0.5340   -0.6201 N   0  0  1  0  0  3           0  0  0
   -6.3330   -0.3588    0.8510 C   0  0  0  0  0  4           0  0  0
   -8.5461   -0.9676    1.6835 C   0  0  0  0  0  4           0  0  0
    0.0000    0.0000    0.0000 C   0  0  0  0  0  4           0  0  0
   -0.7474    0.0000    1.1776 C   0  0  0  0  0  4           0  0  0
   -3.8959    0.2364   -2.6429 C   0  0  0  0  0  4           0  0  0
   -4.2060    0.1093   -0.3707 C   0  0  0  0  0  4           0  0  0
   -2.0167    0.1147   -1.3576 C   0  0  0  0  0  4           0  0  0
   -8.3019   -1.2498    0.3570 C   0  0  0  0  0  4           0  0  0
   -2.7992    0.0794   -0.1857 C   0  0  0  0  0  4           0  0  0
   -0.6322    0.0784   -1.2439 C   0  0  0  0  0  4           0  0  0
   -2.1421    0.0306    1.0751 C   0  0  0  0  0  4           0  0  0
    1.9812   -1.1160    0.6443 C   0  0  0  0  0  4           0  0  0
    7.8165    0.3032   -1.2080 C   0  0  0  0  0  4           0  0  0
    7.5641   -1.9819   -0.7251 C   0  0  0  0  0  4           0  0  0
   -0.8435   -0.0067    3.5348 C   0  0  0  0  0  4           0  0  0
    6.4883    0.6215   -0.5289 C   0  0  0  0  0  4           0  0  0
    6.2285   -1.7193   -0.0343 C   0  0  0  0  0  4           0  0  0
    4.3044   -0.2267    0.0370 C   0  0  0  0  0  4           0  0  0
   -9.7761   -1.2078    2.4894 C   0  0  0  0  0  4           0  0  0
    3.3198   -1.3947   -0.0273 C   0  0  0  0  0  4           0  0  0
   -9.7559   -2.5794    3.1580 C   0  0  0  0  0  4           0  0  0
  -10.9973   -2.8808    4.0006 C   0  0  0  0  0  4           0  0  0
  -10.9511   -4.2532    4.6551 C   0  0  0  0  0  4           0  0  0
  1 10  1  0     0  0
  1 11  1  0     0  0
  2 12  1  0     0  0
  2 21  1  0     0  0
  3 13  1  0     0  0
  3 24  1  0     0  0
  4 22  1  0     0  0
  4 23  1  0     0  0
  5 10  2  0     0  0
  5 17  1  0     0  0
  6 14  1  0     0  0
  6 15  2  0     0  0
  7 14  2  0     0  0
  7 16  1  0     0  0
  8 10  1  0     0  0
  8 15  1  0     0  0
  9 25  1  0     0  0
  9 26  1  0     0  0
  9 27  1  0     0  0
 11 17  2  0     0  0
 11 28  1  0     0  0
 12 13  1  0     0  0
 12 19  2  0     0  0
 13 20  2  0     0  0
 15 18  1  0     0  0
 16 18  2  0     0  0
 16 19  1  0     0  0
 18 20  1  0     0  0
 21 29  1  0     0  0
 22 25  1  0     0  0
 23 26  1  0     0  0
 27 29  1  0     0  0
 28 30  1  0     0  0
 30 31  1  0     0  0
 31 32  1  0     0  0
M  END
> <standard_type>
pIC50

> <# Confs.>
25

> <canonical_smiles>
COC1=CC2=C(C=C1OCCCN3CCOCC3)N=CN=C2NC4=NC=C(CCCC)S4

> <standard_relation>
=

> <Publication_ID>
nan

> <predicted_activity_value>
6.920818753952375

> <actual_activity_value>
7.200659450546418

> <Compound>
34

> <standard_units>
nM

> hash
5219477090331228072

$$$$
34_
XXILIB    08252103423D 0   0.00000     0.00000

 32 35  0     1  0            999 V2000
   -7.1559   -0.2438    2.3707 S   0  0  0  0  0  2           0  0  0
    1.3663    0.0000   -0.0000 O   0  0  0  0  0  2           0  0  0
   -0.0478   -0.0069    2.3517 O   0  0  0  0  0  2           0  0  0
    3.0212    6.5347   -0.3791 O   0  0  0  0  0  2           0  0  0
   -7.0509   -0.9046   -0.1129 N   0  0  0  0  0  3           0  0  0
   -4.7492    0.2080   -1.6103 N   0  0  0  0  0  3           0  0  0
   -2.5579    0.1887   -2.5805 N   0  0  0  0  0  3           0  0  0
   -5.0622    0.1000    0.7547 N   0  0  0  0  0  3           0  0  0
    3.3327    3.8319    0.4847 N   0  0  1  0  0  3           0  0  0
   -6.3330   -0.3588    0.8510 C   0  0  0  0  0  4           0  0  0
   -8.5461   -0.9676    1.6835 C   0  0  0  0  0  4           0  0  0
    0.0000    0.0000    0.0000 C   0  0  0  0  0  4           0  0  0
   -0.7474    0.0000    1.1776 C   0  0  0  0  0  4           0  0  0
   -3.8959    0.2364   -2.6429 C   0  0  0  0  0  4           0  0  0
   -4.2060    0.1093   -0.3707 C   0  0  0  0  0  4           0  0  0
   -2.0167    0.1147   -1.3576 C   0  0  0  0  0  4           0  0  0
   -8.3019   -1.2498    0.3570 C   0  0  0  0  0  4           0  0  0
   -2.7992    0.0794   -0.1857 C   0  0  0  0  0  4           0  0  0
   -0.6322    0.0784   -1.2439 C   0  0  0  0  0  4           0  0  0
   -2.1421    0.0306    1.0751 C   0  0  0  0  0  4           0  0  0
    1.9812    1.1160    0.6443 C   0  0  0  0  0  4           0  0  0
    3.3350    6.2403    0.9815 C   0  0  0  0  0  4           0  0  0
    2.2318    5.4940   -0.9536 C   0  0  0  0  0  4           0  0  0
   -0.8435   -0.0067    3.5348 C   0  0  0  0  0  4           0  0  0
    4.1130    4.9317    1.0758 C   0  0  0  0  0  4           0  0  0
    2.9830    4.1660   -0.9061 C   0  0  0  0  0  4           0  0  0
    4.0846    2.5747    0.5733 C   0  0  0  0  0  4           0  0  0
   -9.7761   -1.2078    2.4894 C   0  0  0  0  0  4           0  0  0
    3.3198    1.3947   -0.0273 C   0  0  0  0  0  4           0  0  0
  -10.7308   -0.0187    2.4332 C   0  0  0  0  0  4           0  0  0
  -12.0140   -0.2103    3.2447 C   0  0  0  0  0  4           0  0  0
  -12.9469    0.9890    3.1713 C   0  0  0  0  0  4           0  0  0
  1 10  1  0     0  0
  1 11  1  0     0  0
  2 12  1  0     0  0
  2 21  1  0     0  0
  3 13  1  0     0  0
  3 24  1  0     0  0
  4 22  1  0     0  0
  4 23  1  0     0  0
  5 10  2  0     0  0
  5 17  1  0     0  0
  6 14  1  0     0  0
  6 15  2  0     0  0
  7 14  2  0     0  0
  7 16  1  0     0  0
  8 10  1  0     0  0
  8 15  1  0     0  0
  9 25  1  0     0  0
  9 26  1  0     0  0
  9 27  1  0     0  0
 11 17  2  0     0  0
 11 28  1  0     0  0
 12 13  1  0     0  0
 12 19  2  0     0  0
 13 20  2  0     0  0
 15 18  1  0     0  0
 16 18  2  0     0  0
 16 19  1  0     0  0
 18 20  1  0     0  0
 21 29  1  0     0  0
 22 25  1  0     0  0
 23 26  1  0     0  0
 27 29  1  0     0  0
 28 30  1  0     0  0
 30 31  1  0     0  0
 31 32  1  0     0  0
M  END
> <standard_type>
pIC50

> <# Confs.>
25

> <canonical_smiles>
COC1=CC2=C(C=C1OCCCN3CCOCC3)N=CN=C2NC4=NC=C(CCCC)S4

> <standard_relation>
=

> <Publication_ID>
nan

> <predicted_activity_value>
6.920818753952375

> <actual_activity_value>
7.200659450546418

> <Compound>
34

> <standard_units>
nM

> hash
5219477090331228072

$$$$
34_
XXILIB    08252103423D 0   0.00000     0.00000

 32 35  0     1  0            999 V2000
   -7.1559   -0.2438    2.3707 S   0  0  0  0  0  2           0  0  0
    1.3663   -0.0000   -0.0000 O   0  0  0  0  0  2           0  0  0
   -0.0478   -0.0069    2.3517 O   0  0  0  0  0  2           0  0  0
    7.1836   -4.4454   -1.5753 O   0  0  0  0  0  2           0  0  0
   -7.0509   -0.9046   -0.1129 N   0  0  0  0  0  3           0  0  0
   -4.7492    0.2080   -1.6103 N   0  0  0  0  0  3           0  0  0
   -2.5579    0.1887   -2.5805 N   0  0  0  0  0  3           0  0  0
   -5.0622    0.1000    0.7547 N   0  0  0  0  0  3           0  0  0
    5.3672   -2.8108   -0.1000 N   0  0  1  0  0  3           0  0  0
   -6.3330   -0.3588    0.8510 C   0  0  0  0  0  4           0  0  0
   -8.5461   -0.9676    1.6835 C   0  0  0  0  0  4           0  0  0
    0.0000    0.0000    0.0000 C   0  0  0  0  0  4           0  0  0
   -0.7474    0.0000    1.1776 C   0  0  0  0  0  4           0  0  0
   -3.8959    0.2364   -2.6429 C   0  0  0  0  0  4           0  0  0
   -4.2060    0.1093   -0.3707 C   0  0  0  0  0  4           0  0  0
   -2.0167    0.1147   -1.3576 C   0  0  0  0  0  4           0  0  0
   -8.3019   -1.2498    0.3570 C   0  0  0  0  0  4           0  0  0
   -2.7992    0.0794   -0.1857 C   0  0  0  0  0  4           0  0  0
   -0.6322    0.0784   -1.2439 C   0  0  0  0  0  4           0  0  0
   -2.1421    0.0306    1.0751 C   0  0  0  0  0  4           0  0  0
    1.9812   -1.1160    0.6443 C   0  0  0  0  0  4           0  0  0
    7.3917   -4.2041   -0.1843 C   0  0  0  0  0  4           0  0  0
    6.5470   -3.3281   -2.1937 C   0  0  0  0  0  4           0  0  0
   -0.8435   -0.0067    3.5348 C   0  0  0  0  0  4           0  0  0
    6.0600   -3.9545    0.5163 C   0  0  0  0  0  4           0  0  0
    5.1939   -3.0563   -1.5415 C   0  0  0  0  0  4           0  0  0
    4.0846   -2.5747    0.5733 C   0  0  0  0  0  4           0  0  0
   -9.7761   -1.2078    2.4894 C   0  0  0  0  0  4           0  0  0
    3.3198   -1.3947   -0.0273 C   0  0  0  0  0  4           0  0  0
  -10.7308   -0.0187    2.4332 C   0  0  0  0  0  4           0  0  0
  -12.0140   -0.2103    3.2447 C   0  0  0  0  0  4           0  0  0
  -12.9469    0.9890    3.1713 C   0  0  0  0  0  4           0  0  0
  1 10  1  0     0  0
  1 11  1  0     0  0
  2 12  1  0     0  0
  2 21  1  0     0  0
  3 13  1  0     0  0
  3 24  1  0     0  0
  4 22  1  0     0  0
  4 23  1  0     0  0
  5 10  2  0     0  0
  5 17  1  0     0  0
  6 14  1  0     0  0
  6 15  2  0     0  0
  7 14  2  0     0  0
  7 16  1  0     0  0
  8 10  1  0     0  0
  8 15  1  0     0  0
  9 25  1  0     0  0
  9 26  1  0     0  0
  9 27  1  0     0  0
 11 17  2  0     0  0
 11 28  1  0     0  0
 12 13  1  0     0  0
 12 19  2  0     0  0
 13 20  2  0     0  0
 15 18  1  0     0  0
 16 18  2  0     0  0
 16 19  1  0     0  0
 18 20  1  0     0  0
 21 29  1  0     0  0
 22 25  1  0     0  0
 23 26  1  0     0  0
 27 29  1  0     0  0
 28 30  1  0     0  0
 30 31  1  0     0  0
 31 32  1  0     0  0
M  END
> <standard_type>
pIC50

> <# Confs.>
25

> <canonical_smiles>
COC1=CC2=C(C=C1OCCCN3CCOCC3)N=CN=C2NC4=NC=C(CCCC)S4

> <standard_relation>
=

> <Publication_ID>
nan

> <predicted_activity_value>
6.920818753952375

> <actual_activity_value>
7.200659450546418

> <Compound>
34

> <standard_units>
nM

> hash
5219477090331228072

$$$$
34_
XXILIB    08252103423D 0   0.00000     0.00000

 32 35  0     1  0            999 V2000
   -7.1559   -0.2438    2.3707 S   0  0  0  0  0  2           0  0  0
    1.3663   -0.0000   -0.0000 O   0  0  0  0  0  2           0  0  0
   -0.0478   -0.0069    2.3517 O   0  0  0  0  0  2           0  0  0
    8.4178   -0.8444   -0.6097 O   0  0  0  0  0  2           0  0  0
   -7.0509   -0.9046   -0.1129 N   0  0  0  0  0  3           0  0  0
   -4.7492    0.2080   -1.6103 N   0  0  0  0  0  3           0  0  0
   -2.5579    0.1887   -2.5805 N   0  0  0  0  0  3           0  0  0
   -5.0622    0.1000    0.7547 N   0  0  0  0  0  3           0  0  0
    5.5803   -0.5340   -0.6201 N   0  0  1  0  0  3           0  0  0
   -6.3330   -0.3588    0.8510 C   0  0  0  0  0  4           0  0  0
   -8.5461   -0.9676    1.6835 C   0  0  0  0  0  4           0  0  0
    0.0000    0.0000    0.0000 C   0  0  0  0  0  4           0  0  0
   -0.7474    0.0000    1.1776 C   0  0  0  0  0  4           0  0  0
   -3.8959    0.2364   -2.6429 C   0  0  0  0  0  4           0  0  0
   -4.2060    0.1093   -0.3707 C   0  0  0  0  0  4           0  0  0
   -2.0167    0.1147   -1.3576 C   0  0  0  0  0  4           0  0  0
   -8.3019   -1.2498    0.3570 C   0  0  0  0  0  4           0  0  0
   -2.7992    0.0794   -0.1857 C   0  0  0  0  0  4           0  0  0
   -0.6322    0.0784   -1.2439 C   0  0  0  0  0  4           0  0  0
   -2.1421    0.0306    1.0751 C   0  0  0  0  0  4           0  0  0
    1.9812   -1.1160    0.6443 C   0  0  0  0  0  4           0  0  0
    7.8165    0.3032   -1.2080 C   0  0  0  0  0  4           0  0  0
    7.5641   -1.9819   -0.7251 C   0  0  0  0  0  4           0  0  0
   -0.8435   -0.0067    3.5348 C   0  0  0  0  0  4           0  0  0
    6.4883    0.6215   -0.5289 C   0  0  0  0  0  4           0  0  0
    6.2285   -1.7193   -0.0343 C   0  0  0  0  0  4           0  0  0
    4.3044   -0.2267    0.0370 C   0  0  0  0  0  4           0  0  0
   -9.7761   -1.2078    2.4894 C   0  0  0  0  0  4           0  0  0
    3.3198   -1.3947   -0.0273 C   0  0  0  0  0  4           0  0  0
  -10.7308   -0.0187    2.4332 C   0  0  0  0  0  4           0  0  0
  -12.0140   -0.2103    3.2447 C   0  0  0  0  0  4           0  0  0
  -12.9469    0.9890    3.1713 C   0  0  0  0  0  4           0  0  0
  1 10  1  0     0  0
  1 11  1  0     0  0
  2 12  1  0     0  0
  2 21  1  0     0  0
  3 13  1  0     0  0
  3 24  1  0     0  0
  4 22  1  0     0  0
  4 23  1  0     0  0
  5 10  2  0     0  0
  5 17  1  0     0  0
  6 14  1  0     0  0
  6 15  2  0     0  0
  7 14  2  0     0  0
  7 16  1  0     0  0
  8 10  1  0     0  0
  8 15  1  0     0  0
  9 25  1  0     0  0
  9 26  1  0     0  0
  9 27  1  0     0  0
 11 17  2  0     0  0
 11 28  1  0     0  0
 12 13  1  0     0  0
 12 19  2  0     0  0
 13 20  2  0     0  0
 15 18  1  0     0  0
 16 18  2  0     0  0
 16 19  1  0     0  0
 18 20  1  0     0  0
 21 29  1  0     0  0
 22 25  1  0     0  0
 23 26  1  0     0  0
 27 29  1  0     0  0
 28 30  1  0     0  0
 30 31  1  0     0  0
 31 32  1  0     0  0
M  END
> <standard_type>
pIC50

> <# Confs.>
25

> <canonical_smiles>
COC1=CC2=C(C=C1OCCCN3CCOCC3)N=CN=C2NC4=NC=C(CCCC)S4

> <standard_relation>
=

> <Publication_ID>
nan

> <predicted_activity_value>
6.920818753952375

> <actual_activity_value>
7.200659450546418

> <Compound>
34

> <standard_units>
nM

> hash
5219477090331228072

$$$$
34_
XXILIB    08252103423D 0   0.00000     0.00000

 32 35  0     1  0            999 V2000
   -7.1559   -0.2438    2.3707 S   0  0  0  0  0  2           0  0  0
    1.3663    0.0000    0.0000 O   0  0  0  0  0  2           0  0  0
   -0.0478   -0.0069    2.3517 O   0  0  0  0  0  2           0  0  0
    4.7480   -4.6457    3.5448 O   0  0  0  0  0  2           0  0  0
   -7.0509   -0.9046   -0.1129 N   0  0  0  0  0  3           0  0  0
   -4.7492    0.2080   -1.6103 N   0  0  0  0  0  3           0  0  0
   -2.5579    0.1887   -2.5805 N   0  0  0  0  0  3           0  0  0
   -5.0622    0.1000    0.7547 N   0  0  0  0  0  3           0  0  0
    3.9787   -3.2526    1.1751 N   0  0  1  0  0  3           0  0  0
   -6.3330   -0.3588    0.8510 C   0  0  0  0  0  4           0  0  0
   -8.5461   -0.9676    1.6835 C   0  0  0  0  0  4           0  0  0
    0.0000    0.0000    0.0000 C   0  0  0  0  0  4           0  0  0
   -0.7474    0.0000    1.1776 C   0  0  0  0  0  4           0  0  0
   -3.8959    0.2364   -2.6429 C   0  0  0  0  0  4           0  0  0
   -4.2060    0.1093   -0.3707 C   0  0  0  0  0  4           0  0  0
   -2.0167    0.1147   -1.3576 C   0  0  0  0  0  4           0  0  0
   -8.3019   -1.2498    0.3570 C   0  0  0  0  0  4           0  0  0
   -2.7992    0.0794   -0.1857 C   0  0  0  0  0  4           0  0  0
   -0.6322    0.0784   -1.2439 C   0  0  0  0  0  4           0  0  0
   -2.1421    0.0306    1.0751 C   0  0  0  0  0  4           0  0  0
    1.9812   -1.2887    0.0000 C   0  0  0  0  0  4           0  0  0
    4.4515   -5.3623    2.3469 C   0  0  0  0  0  4           0  0  0
    3.9726   -3.4506    3.6254 C   0  0  0  0  0  4           0  0  0
   -0.8435   -0.0067    3.5348 C   0  0  0  0  0  4           0  0  0
    4.7560   -4.5021    1.1246 C   0  0  0  0  0  4           0  0  0
    4.2649   -2.5431    2.4333 C   0  0  0  0  0  4           0  0  0
    4.2759   -2.4251    0.0000 C   0  0  0  0  0  4           0  0  0
   -9.7761   -1.2078    2.4894 C   0  0  0  0  0  4           0  0  0
    3.4941   -1.1110    0.0000 C   0  0  0  0  0  4           0  0  0
   -9.7559   -2.5794    3.1580 C   0  0  0  0  0  4           0  0  0
  -10.9973   -2.8808    4.0006 C   0  0  0  0  0  4           0  0  0
  -10.9511   -4.2532    4.6551 C   0  0  0  0  0  4           0  0  0
  1 10  1  0     0  0
  1 11  1  0     0  0
  2 12  1  0     0  0
  2 21  1  0     0  0
  3 13  1  0     0  0
  3 24  1  0     0  0
  4 22  1  0     0  0
  4 23  1  0     0  0
  5 10  2  0     0  0
  5 17  1  0     0  0
  6 14  1  0     0  0
  6 15  2  0     0  0
  7 14  2  0     0  0
  7 16  1  0     0  0
  8 10  1  0     0  0
  8 15  1  0     0  0
  9 25  1  0     0  0
  9 26  1  0     0  0
  9 27  1  0     0  0
 11 17  2  0     0  0
 11 28  1  0     0  0
 12 13  1  0     0  0
 12 19  2  0     0  0
 13 20  2  0     0  0
 15 18  1  0     0  0
 16 18  2  0     0  0
 16 19  1  0     0  0
 18 20  1  0     0  0
 21 29  1  0     0  0
 22 25  1  0     0  0
 23 26  1  0     0  0
 27 29  1  0     0  0
 28 30  1  0     0  0
 30 31  1  0     0  0
 31 32  1  0     0  0
M  END
> <standard_type>
pIC50

> <# Confs.>
25

> <canonical_smiles>
COC1=CC2=C(C=C1OCCCN3CCOCC3)N=CN=C2NC4=NC=C(CCCC)S4

> <standard_relation>
=

> <Publication_ID>
nan

> <predicted_activity_value>
6.920818753952375

> <actual_activity_value>
7.200659450546418

> <Compound>
34

> <standard_units>
nM

> hash
5219477090331228072

$$$$
34_
XXILIB    08252103423D 0   0.00000     0.00000

 32 35  0     1  0            999 V2000
   -7.1559   -0.2438    2.3707 S   0  0  0  0  0  2           0  0  0
    1.3663    0.0000    0.0000 O   0  0  0  0  0  2           0  0  0
   -0.0478   -0.0069    2.3517 O   0  0  0  0  0  2           0  0  0
    4.7480   -4.6457    3.5448 O   0  0  0  0  0  2           0  0  0
   -7.0509   -0.9046   -0.1129 N   0  0  0  0  0  3           0  0  0
   -4.7492    0.2080   -1.6103 N   0  0  0  0  0  3           0  0  0
   -2.5579    0.1887   -2.5805 N   0  0  0  0  0  3           0  0  0
   -5.0622    0.1000    0.7547 N   0  0  0  0  0  3           0  0  0
    3.9787   -3.2526    1.1751 N   0  0  1  0  0  3           0  0  0
   -6.3330   -0.3588    0.8510 C   0  0  0  0  0  4           0  0  0
   -8.5461   -0.9676    1.6835 C   0  0  0  0  0  4           0  0  0
    0.0000    0.0000    0.0000 C   0  0  0  0  0  4           0  0  0
   -0.7474    0.0000    1.1776 C   0  0  0  0  0  4           0  0  0
   -3.8959    0.2364   -2.6429 C   0  0  0  0  0  4           0  0  0
   -4.2060    0.1093   -0.3707 C   0  0  0  0  0  4           0  0  0
   -2.0167    0.1147   -1.3576 C   0  0  0  0  0  4           0  0  0
   -8.3019   -1.2498    0.3570 C   0  0  0  0  0  4           0  0  0
   -2.7992    0.0794   -0.1857 C   0  0  0  0  0  4           0  0  0
   -0.6322    0.0784   -1.2439 C   0  0  0  0  0  4           0  0  0
   -2.1421    0.0306    1.0751 C   0  0  0  0  0  4           0  0  0
    1.9812   -1.2887    0.0000 C   0  0  0  0  0  4           0  0  0
    4.4515   -5.3623    2.3469 C   0  0  0  0  0  4           0  0  0
    3.9726   -3.4506    3.6254 C   0  0  0  0  0  4           0  0  0
   -0.8435   -0.0067    3.5348 C   0  0  0  0  0  4           0  0  0
    4.7560   -4.5021    1.1246 C   0  0  0  0  0  4           0  0  0
    4.2649   -2.5431    2.4333 C   0  0  0  0  0  4           0  0  0
    4.2759   -2.4251    0.0000 C   0  0  0  0  0  4           0  0  0
   -9.7761   -1.2078    2.4894 C   0  0  0  0  0  4           0  0  0
    3.4941   -1.1110    0.0000 C   0  0  0  0  0  4           0  0  0
  -10.7308   -0.0187    2.4332 C   0  0  0  0  0  4           0  0  0
  -12.0140   -0.2103    3.2447 C   0  0  0  0  0  4           0  0  0
  -12.9469    0.9890    3.1713 C   0  0  0  0  0  4           0  0  0
  1 10  1  0     0  0
  1 11  1  0     0  0
  2 12  1  0     0  0
  2 21  1  0     0  0
  3 13  1  0     0  0
  3 24  1  0     0  0
  4 22  1  0     0  0
  4 23  1  0     0  0
  5 10  2  0     0  0
  5 17  1  0     0  0
  6 14  1  0     0  0
  6 15  2  0     0  0
  7 14  2  0     0  0
  7 16  1  0     0  0
  8 10  1  0     0  0
  8 15  1  0     0  0
  9 25  1  0     0  0
  9 26  1  0     0  0
  9 27  1  0     0  0
 11 17  2  0     0  0
 11 28  1  0     0  0
 12 13  1  0     0  0
 12 19  2  0     0  0
 13 20  2  0     0  0
 15 18  1  0     0  0
 16 18  2  0     0  0
 16 19  1  0     0  0
 18 20  1  0     0  0
 21 29  1  0     0  0
 22 25  1  0     0  0
 23 26  1  0     0  0
 27 29  1  0     0  0
 28 30  1  0     0  0
 30 31  1  0     0  0
 31 32  1  0     0  0
M  END
> <standard_type>
pIC50

> <# Confs.>
25

> <canonical_smiles>
COC1=CC2=C(C=C1OCCCN3CCOCC3)N=CN=C2NC4=NC=C(CCCC)S4

> <standard_relation>
=

> <Publication_ID>
nan

> <predicted_activity_value>
6.920818753952375

> <actual_activity_value>
7.200659450546418

> <Compound>
34

> <standard_units>
nM

> hash
5219477090331228072

$$$$
34_
XXILIB    08252103423D 0   0.00000     0.00000

 32 35  0     1  0            999 V2000
   -7.1559   -0.2438    2.3707 S   0  0  0  0  0  2           0  0  0
    1.3663   -0.0000    0.0000 O   0  0  0  0  0  2           0  0  0
   -0.0478   -0.0069    2.3517 O   0  0  0  0  0  2           0  0  0
    2.0161   -5.5547   -2.7890 O   0  0  0  0  0  2           0  0  0
   -7.0509   -0.9046   -0.1129 N   0  0  0  0  0  3           0  0  0
   -4.7492    0.2080   -1.6103 N   0  0  0  0  0  3           0  0  0
   -2.5579    0.1887   -2.5805 N   0  0  0  0  0  3           0  0  0
   -5.0622    0.1000    0.7547 N   0  0  0  0  0  3           0  0  0
    2.3932   -2.9160   -1.7679 N   0  0  1  0  0  3           0  0  0
   -6.3330   -0.3588    0.8510 C   0  0  0  0  0  4           0  0  0
   -8.5461   -0.9676    1.6835 C   0  0  0  0  0  4           0  0  0
    0.0000    0.0000    0.0000 C   0  0  0  0  0  4           0  0  0
   -0.7474    0.0000    1.1776 C   0  0  0  0  0  4           0  0  0
   -3.8959    0.2364   -2.6429 C   0  0  0  0  0  4           0  0  0
   -4.2060    0.1093   -0.3707 C   0  0  0  0  0  4           0  0  0
   -2.0167    0.1147   -1.3576 C   0  0  0  0  0  4           0  0  0
   -8.3019   -1.2498    0.3570 C   0  0  0  0  0  4           0  0  0
   -2.7992    0.0794   -0.1857 C   0  0  0  0  0  4           0  0  0
   -0.6322    0.0784   -1.2439 C   0  0  0  0  0  4           0  0  0
   -2.1421    0.0306    1.0751 C   0  0  0  0  0  4           0  0  0
    1.9812   -1.1160    0.6443 C   0  0  0  0  0  4           0  0  0
    1.4756   -4.4274   -3.4769 C   0  0  0  0  0  4           0  0  0
    2.0531   -5.3198   -1.3820 C   0  0  0  0  0  4           0  0  0
   -0.8435   -0.0067    3.5348 C   0  0  0  0  0  4           0  0  0
    2.3242   -3.1876   -3.2133 C   0  0  0  0  0  4           0  0  0
    2.9160   -4.1007   -1.0668 C   0  0  0  0  0  4           0  0  0
    3.2131   -1.7249   -1.5165 C   0  0  0  0  0  4           0  0  0
   -9.7761   -1.2078    2.4894 C   0  0  0  0  0  4           0  0  0
    3.3198   -1.3947   -0.0273 C   0  0  0  0  0  4           0  0  0
   -9.7559   -2.5794    3.1580 C   0  0  0  0  0  4           0  0  0
  -10.9973   -2.8808    4.0006 C   0  0  0  0  0  4           0  0  0
  -10.9511   -4.2532    4.6551 C   0  0  0  0  0  4           0  0  0
  1 10  1  0     0  0
  1 11  1  0     0  0
  2 12  1  0     0  0
  2 21  1  0     0  0
  3 13  1  0     0  0
  3 24  1  0     0  0
  4 22  1  0     0  0
  4 23  1  0     0  0
  5 10  2  0     0  0
  5 17  1  0     0  0
  6 14  1  0     0  0
  6 15  2  0     0  0
  7 14  2  0     0  0
  7 16  1  0     0  0
  8 10  1  0     0  0
  8 15  1  0     0  0
  9 25  1  0     0  0
  9 26  1  0     0  0
  9 27  1  0     0  0
 11 17  2  0     0  0
 11 28  1  0     0  0
 12 13  1  0     0  0
 12 19  2  0     0  0
 13 20  2  0     0  0
 15 18  1  0     0  0
 16 18  2  0     0  0
 16 19  1  0     0  0
 18 20  1  0     0  0
 21 29  1  0     0  0
 22 25  1  0     0  0
 23 26  1  0     0  0
 27 29  1  0     0  0
 28 30  1  0     0  0
 30 31  1  0     0  0
 31 32  1  0     0  0
M  END
> <standard_type>
pIC50

> <# Confs.>
25

> <canonical_smiles>
COC1=CC2=C(C=C1OCCCN3CCOCC3)N=CN=C2NC4=NC=C(CCCC)S4

> <standard_relation>
=

> <Publication_ID>
nan

> <predicted_activity_value>
6.920818753952375

> <actual_activity_value>
7.200659450546418

> <Compound>
34

> <standard_units>
nM

> hash
5219477090331228072

$$$$
34_
XXILIB    08252103423D 0   0.00000     0.00000

 32 35  0     1  0            999 V2000
   -7.1559   -0.2438    2.3707 S   0  0  0  0  0  2           0  0  0
    1.3663   -0.0000    0.0000 O   0  0  0  0  0  2           0  0  0
   -0.0478   -0.0069    2.3517 O   0  0  0  0  0  2           0  0  0
    2.0161   -5.5547   -2.7890 O   0  0  0  0  0  2           0  0  0
   -7.0509   -0.9046   -0.1129 N   0  0  0  0  0  3           0  0  0
   -4.7492    0.2080   -1.6103 N   0  0  0  0  0  3           0  0  0
   -2.5579    0.1887   -2.5805 N   0  0  0  0  0  3           0  0  0
   -5.0622    0.1000    0.7547 N   0  0  0  0  0  3           0  0  0
    2.3932   -2.9160   -1.7679 N   0  0  1  0  0  3           0  0  0
   -6.3330   -0.3588    0.8510 C   0  0  0  0  0  4           0  0  0
   -8.5461   -0.9676    1.6835 C   0  0  0  0  0  4           0  0  0
    0.0000    0.0000    0.0000 C   0  0  0  0  0  4           0  0  0
   -0.7474    0.0000    1.1776 C   0  0  0  0  0  4           0  0  0
   -3.8959    0.2364   -2.6429 C   0  0  0  0  0  4           0  0  0
   -4.2060    0.1093   -0.3707 C   0  0  0  0  0  4           0  0  0
   -2.0167    0.1147   -1.3576 C   0  0  0  0  0  4           0  0  0
   -8.3019   -1.2498    0.3570 C   0  0  0  0  0  4           0  0  0
   -2.7992    0.0794   -0.1857 C   0  0  0  0  0  4           0  0  0
   -0.6322    0.0784   -1.2439 C   0  0  0  0  0  4           0  0  0
   -2.1421    0.0306    1.0751 C   0  0  0  0  0  4           0  0  0
    1.9812   -1.1160    0.6443 C   0  0  0  0  0  4           0  0  0
    1.4756   -4.4274   -3.4769 C   0  0  0  0  0  4           0  0  0
    2.0531   -5.3198   -1.3820 C   0  0  0  0  0  4           0  0  0
   -0.8435   -0.0067    3.5348 C   0  0  0  0  0  4           0  0  0
    2.3242   -3.1876   -3.2133 C   0  0  0  0  0  4           0  0  0
    2.9160   -4.1007   -1.0668 C   0  0  0  0  0  4           0  0  0
    3.2131   -1.7249   -1.5165 C   0  0  0  0  0  4           0  0  0
   -9.7761   -1.2078    2.4894 C   0  0  0  0  0  4           0  0  0
    3.3198   -1.3947   -0.0273 C   0  0  0  0  0  4           0  0  0
  -10.7308   -0.0187    2.4332 C   0  0  0  0  0  4           0  0  0
  -12.0140   -0.2103    3.2447 C   0  0  0  0  0  4           0  0  0
  -12.9469    0.9890    3.1713 C   0  0  0  0  0  4           0  0  0
  1 10  1  0     0  0
  1 11  1  0     0  0
  2 12  1  0     0  0
  2 21  1  0     0  0
  3 13  1  0     0  0
  3 24  1  0     0  0
  4 22  1  0     0  0
  4 23  1  0     0  0
  5 10  2  0     0  0
  5 17  1  0     0  0
  6 14  1  0     0  0
  6 15  2  0     0  0
  7 14  2  0     0  0
  7 16  1  0     0  0
  8 10  1  0     0  0
  8 15  1  0     0  0
  9 25  1  0     0  0
  9 26  1  0     0  0
  9 27  1  0     0  0
 11 17  2  0     0  0
 11 28  1  0     0  0
 12 13  1  0     0  0
 12 19  2  0     0  0
 13 20  2  0     0  0
 15 18  1  0     0  0
 16 18  2  0     0  0
 16 19  1  0     0  0
 18 20  1  0     0  0
 21 29  1  0     0  0
 22 25  1  0     0  0
 23 26  1  0     0  0
 27 29  1  0     0  0
 28 30  1  0     0  0
 30 31  1  0     0  0
 31 32  1  0     0  0
M  END
> <standard_type>
pIC50

> <# Confs.>
25

> <canonical_smiles>
COC1=CC2=C(C=C1OCCCN3CCOCC3)N=CN=C2NC4=NC=C(CCCC)S4

> <standard_relation>
=

> <Publication_ID>
nan

> <predicted_activity_value>
6.920818753952375

> <actual_activity_value>
7.200659450546418

> <Compound>
34

> <standard_units>
nM

> hash
5219477090331228072

$$$$
34_
XXILIB    08252103423D 0   0.00000     0.00000

 32 35  0     1  0            999 V2000
   -7.1559   -0.2438    2.3707 S   0  0  0  0  0  2           0  0  0
    1.3663   -0.0000    0.0000 O   0  0  0  0  0  2           0  0  0
   -0.0478   -0.0069    2.3517 O   0  0  0  0  0  2           0  0  0
    7.5957    0.0428   -2.5809 O   0  0  0  0  0  2           0  0  0
   -7.0509   -0.9046   -0.1129 N   0  0  0  0  0  3           0  0  0
   -4.7492    0.2080   -1.6103 N   0  0  0  0  0  3           0  0  0
   -2.5579    0.1887   -2.5805 N   0  0  0  0  0  3           0  0  0
   -5.0622    0.1000    0.7547 N   0  0  0  0  0  3           0  0  0
    5.5803    0.5340   -0.6201 N   0  0  1  0  0  3           0  0  0
   -6.3330   -0.3588    0.8510 C   0  0  0  0  0  4           0  0  0
   -8.5461   -0.9676    1.6835 C   0  0  0  0  0  4           0  0  0
    0.0000    0.0000    0.0000 C   0  0  0  0  0  4           0  0  0
   -0.7474    0.0000    1.1776 C   0  0  0  0  0  4           0  0  0
   -3.8959    0.2364   -2.6429 C   0  0  0  0  0  4           0  0  0
   -4.2060    0.1093   -0.3707 C   0  0  0  0  0  4           0  0  0
   -2.0167    0.1147   -1.3576 C   0  0  0  0  0  4           0  0  0
   -8.3019   -1.2498    0.3570 C   0  0  0  0  0  4           0  0  0
   -2.7992    0.0794   -0.1857 C   0  0  0  0  0  4           0  0  0
   -0.6322    0.0784   -1.2439 C   0  0  0  0  0  4           0  0  0
   -2.1421    0.0306    1.0751 C   0  0  0  0  0  4           0  0  0
    1.9812    1.1160    0.6443 C   0  0  0  0  0  4           0  0  0
    7.8139   -0.3058   -1.2144 C   0  0  0  0  0  4           0  0  0
    6.7475    1.1857   -2.6830 C   0  0  0  0  0  4           0  0  0
   -0.8435   -0.0067    3.5348 C   0  0  0  0  0  4           0  0  0
    6.4883   -0.6215   -0.5289 C   0  0  0  0  0  4           0  0  0
    5.3951    0.9067   -2.0325 C   0  0  0  0  0  4           0  0  0
    4.3044    0.2267    0.0370 C   0  0  0  0  0  4           0  0  0
   -9.7761   -1.2078    2.4894 C   0  0  0  0  0  4           0  0  0
    3.3198    1.3947   -0.0273 C   0  0  0  0  0  4           0  0  0
   -9.7559   -2.5794    3.1580 C   0  0  0  0  0  4           0  0  0
  -10.9973   -2.8808    4.0006 C   0  0  0  0  0  4           0  0  0
  -10.9511   -4.2532    4.6551 C   0  0  0  0  0  4           0  0  0
  1 10  1  0     0  0
  1 11  1  0     0  0
  2 12  1  0     0  0
  2 21  1  0     0  0
  3 13  1  0     0  0
  3 24  1  0     0  0
  4 22  1  0     0  0
  4 23  1  0     0  0
  5 10  2  0     0  0
  5 17  1  0     0  0
  6 14  1  0     0  0
  6 15  2  0     0  0
  7 14  2  0     0  0
  7 16  1  0     0  0
  8 10  1  0     0  0
  8 15  1  0     0  0
  9 25  1  0     0  0
  9 26  1  0     0  0
  9 27  1  0     0  0
 11 17  2  0     0  0
 11 28  1  0     0  0
 12 13  1  0     0  0
 12 19  2  0     0  0
 13 20  2  0     0  0
 15 18  1  0     0  0
 16 18  2  0     0  0
 16 19  1  0     0  0
 18 20  1  0     0  0
 21 29  1  0     0  0
 22 25  1  0     0  0
 23 26  1  0     0  0
 27 29  1  0     0  0
 28 30  1  0     0  0
 30 31  1  0     0  0
 31 32  1  0     0  0
M  END
> <standard_type>
pIC50

> <# Confs.>
25

> <canonical_smiles>
COC1=CC2=C(C=C1OCCCN3CCOCC3)N=CN=C2NC4=NC=C(CCCC)S4

> <standard_relation>
=

> <Publication_ID>
nan

> <predicted_activity_value>
6.920818753952375

> <actual_activity_value>
7.200659450546418

> <Compound>
34

> <standard_units>
nM

> hash
5219477090331228072

$$$$
34_
XXILIB    08252103423D 0   0.00000     0.00000

 32 35  0     1  0            999 V2000
   -7.1559   -0.2438    2.3707 S   0  0  0  0  0  2           0  0  0
    1.3663    0.0000    0.0000 O   0  0  0  0  0  2           0  0  0
   -0.0478   -0.0069    2.3517 O   0  0  0  0  0  2           0  0  0
    3.0212   -5.4697    3.5956 O   0  0  0  0  0  2           0  0  0
   -7.0509   -0.9046   -0.1129 N   0  0  0  0  0  3           0  0  0
   -4.7492    0.2080   -1.6103 N   0  0  0  0  0  3           0  0  0
   -2.5579    0.1887   -2.5805 N   0  0  0  0  0  3           0  0  0
   -5.0622    0.1000    0.7547 N   0  0  0  0  0  3           0  0  0
    3.3327   -3.5609    1.4962 N   0  0  1  0  0  3           0  0  0
   -6.3330   -0.3588    0.8510 C   0  0  0  0  0  4           0  0  0
   -8.5461   -0.9676    1.6835 C   0  0  0  0  0  4           0  0  0
    0.0000    0.0000    0.0000 C   0  0  0  0  0  4           0  0  0
   -0.7474    0.0000    1.1776 C   0  0  0  0  0  4           0  0  0
   -3.8959    0.2364   -2.6429 C   0  0  0  0  0  4           0  0  0
   -4.2060    0.1093   -0.3707 C   0  0  0  0  0  4           0  0  0
   -2.0167    0.1147   -1.3576 C   0  0  0  0  0  4           0  0  0
   -8.3019   -1.2498    0.3570 C   0  0  0  0  0  4           0  0  0
   -2.7992    0.0794   -0.1857 C   0  0  0  0  0  4           0  0  0
   -0.6322    0.0784   -1.2439 C   0  0  0  0  0  4           0  0  0
   -2.1421    0.0306    1.0751 C   0  0  0  0  0  4           0  0  0
    1.9812   -1.2887    0.0000 C   0  0  0  0  0  4           0  0  0
    3.3350   -5.8951    2.2701 C   0  0  0  0  0  4           0  0  0
    2.2318   -4.2812    3.5729 C   0  0  0  0  0  4           0  0  0
   -0.8435   -0.0067    3.5348 C   0  0  0  0  0  4           0  0  0
    4.1130   -4.8089    1.5342 C   0  0  0  0  0  4           0  0  0
    2.9830   -3.1548    2.8677 C   0  0  0  0  0  4           0  0  0
    4.0846   -2.5164    0.7908 C   0  0  0  0  0  4           0  0  0
   -9.7761   -1.2078    2.4894 C   0  0  0  0  0  4           0  0  0
    3.3198   -1.1942    0.7210 C   0  0  0  0  0  4           0  0  0
   -9.7559   -2.5794    3.1580 C   0  0  0  0  0  4           0  0  0
  -10.9973   -2.8808    4.0006 C   0  0  0  0  0  4           0  0  0
  -10.9511   -4.2532    4.6551 C   0  0  0  0  0  4           0  0  0
  1 10  1  0     0  0
  1 11  1  0     0  0
  2 12  1  0     0  0
  2 21  1  0     0  0
  3 13  1  0     0  0
  3 24  1  0     0  0
  4 22  1  0     0  0
  4 23  1  0     0  0
  5 10  2  0     0  0
  5 17  1  0     0  0
  6 14  1  0     0  0
  6 15  2  0     0  0
  7 14  2  0     0  0
  7 16  1  0     0  0
  8 10  1  0     0  0
  8 15  1  0     0  0
  9 25  1  0     0  0
  9 26  1  0     0  0
  9 27  1  0     0  0
 11 17  2  0     0  0
 11 28  1  0     0  0
 12 13  1  0     0  0
 12 19  2  0     0  0
 13 20  2  0     0  0
 15 18  1  0     0  0
 16 18  2  0     0  0
 16 19  1  0     0  0
 18 20  1  0     0  0
 21 29  1  0     0  0
 22 25  1  0     0  0
 23 26  1  0     0  0
 27 29  1  0     0  0
 28 30  1  0     0  0
 30 31  1  0     0  0
 31 32  1  0     0  0
M  END
> <standard_type>
pIC50

> <# Confs.>
25

> <canonical_smiles>
COC1=CC2=C(C=C1OCCCN3CCOCC3)N=CN=C2NC4=NC=C(CCCC)S4

> <standard_relation>
=

> <Publication_ID>
nan

> <predicted_activity_value>
6.920818753952375

> <actual_activity_value>
7.200659450546418

> <Compound>
34

> <standard_units>
nM

> hash
5219477090331228072

$$$$
34_
XXILIB    08252103423D 0   0.00000     0.00000

 32 35  0     1  0            999 V2000
   -7.1559   -0.2438    2.3707 S   0  0  0  0  0  2           0  0  0
    1.3663   -0.0000    0.0000 O   0  0  0  0  0  2           0  0  0
   -0.0478   -0.0069    2.3517 O   0  0  0  0  0  2           0  0  0
    6.5788   -1.4389   -4.0284 O   0  0  0  0  0  2           0  0  0
   -7.0509   -0.9046   -0.1129 N   0  0  0  0  0  3           0  0  0
   -4.7492    0.2080   -1.6103 N   0  0  0  0  0  3           0  0  0
   -2.5579    0.1887   -2.5805 N   0  0  0  0  0  3           0  0  0
   -5.0622    0.1000    0.7547 N   0  0  0  0  0  3           0  0  0
    4.5220   -1.9867   -2.1264 N   0  0  1  0  0  3           0  0  0
   -6.3330   -0.3588    0.8510 C   0  0  0  0  0  4           0  0  0
   -8.5461   -0.9676    1.6835 C   0  0  0  0  0  4           0  0  0
    0.0000    0.0000    0.0000 C   0  0  0  0  0  4           0  0  0
   -0.7474    0.0000    1.1776 C   0  0  0  0  0  4           0  0  0
   -3.8959    0.2364   -2.6429 C   0  0  0  0  0  4           0  0  0
   -4.2060    0.1093   -0.3707 C   0  0  0  0  0  4           0  0  0
   -2.0167    0.1147   -1.3576 C   0  0  0  0  0  4           0  0  0
   -8.3019   -1.2498    0.3570 C   0  0  0  0  0  4           0  0  0
   -2.7992    0.0794   -0.1857 C   0  0  0  0  0  4           0  0  0
   -0.6322    0.0784   -1.2439 C   0  0  0  0  0  4           0  0  0
   -2.1421    0.0306    1.0751 C   0  0  0  0  0  4           0  0  0
    1.9812   -1.1160    0.6443 C   0  0  0  0  0  4           0  0  0
    5.7210   -2.5673   -4.1935 C   0  0  0  0  0  4           0  0  0
    6.7743   -1.1491   -2.6450 C   0  0  0  0  0  4           0  0  0
   -0.8435   -0.0067    3.5348 C   0  0  0  0  0  4           0  0  0
    4.3613   -2.2983   -3.5565 C   0  0  0  0  0  4           0  0  0
    5.4395   -0.8458   -1.9693 C   0  0  0  0  0  4           0  0  0
    3.2131   -1.7249   -1.5165 C   0  0  0  0  0  4           0  0  0
   -9.7761   -1.2078    2.4894 C   0  0  0  0  0  4           0  0  0
    3.3198   -1.3947   -0.0273 C   0  0  0  0  0  4           0  0  0
   -9.7559   -2.5794    3.1580 C   0  0  0  0  0  4           0  0  0
   -9.6644   -3.7502    2.1768 C   0  0  0  0  0  4           0  0  0
   -9.6461   -5.1045    2.8695 C   0  0  0  0  0  4           0  0  0
  1 10  1  0     0  0
  1 11  1  0     0  0
  2 12  1  0     0  0
  2 21  1  0     0  0
  3 13  1  0     0  0
  3 24  1  0     0  0
  4 22  1  0     0  0
  4 23  1  0     0  0
  5 10  2  0     0  0
  5 17  1  0     0  0
  6 14  1  0     0  0
  6 15  2  0     0  0
  7 14  2  0     0  0
  7 16  1  0     0  0
  8 10  1  0     0  0
  8 15  1  0     0  0
  9 25  1  0     0  0
  9 26  1  0     0  0
  9 27  1  0     0  0
 11 17  2  0     0  0
 11 28  1  0     0  0
 12 13  1  0     0  0
 12 19  2  0     0  0
 13 20  2  0     0  0
 15 18  1  0     0  0
 16 18  2  0     0  0
 16 19  1  0     0  0
 18 20  1  0     0  0
 21 29  1  0     0  0
 22 25  1  0     0  0
 23 26  1  0     0  0
 27 29  1  0     0  0
 28 30  1  0     0  0
 30 31  1  0     0  0
 31 32  1  0     0  0
M  END
> <standard_type>
pIC50

> <# Confs.>
25

> <canonical_smiles>
COC1=CC2=C(C=C1OCCCN3CCOCC3)N=CN=C2NC4=NC=C(CCCC)S4

> <standard_relation>
=

> <Publication_ID>
nan

> <predicted_activity_value>
6.920818753952375

> <actual_activity_value>
7.200659450546418

> <Compound>
34

> <standard_units>
nM

> hash
5219477090331228072

$$$$
34_
XXILIB    08252103423D 0   0.00000     0.00000

 32 35  0     1  0            999 V2000
   -7.1559   -0.2438    2.3707 S   0  0  0  0  0  2           0  0  0
    1.3663   -0.0000    0.0000 O   0  0  0  0  0  2           0  0  0
   -0.0478   -0.0069    2.3517 O   0  0  0  0  0  2           0  0  0
    7.5957    0.0428   -2.5809 O   0  0  0  0  0  2           0  0  0
   -7.0509   -0.9046   -0.1129 N   0  0  0  0  0  3           0  0  0
   -4.7492    0.2080   -1.6103 N   0  0  0  0  0  3           0  0  0
   -2.5579    0.1887   -2.5805 N   0  0  0  0  0  3           0  0  0
   -5.0622    0.1000    0.7547 N   0  0  0  0  0  3           0  0  0
    5.5803    0.5340   -0.6201 N   0  0  1  0  0  3           0  0  0
   -6.3330   -0.3588    0.8510 C   0  0  0  0  0  4           0  0  0
   -8.5461   -0.9676    1.6835 C   0  0  0  0  0  4           0  0  0
    0.0000    0.0000    0.0000 C   0  0  0  0  0  4           0  0  0
   -0.7474    0.0000    1.1776 C   0  0  0  0  0  4           0  0  0
   -3.8959    0.2364   -2.6429 C   0  0  0  0  0  4           0  0  0
   -4.2060    0.1093   -0.3707 C   0  0  0  0  0  4           0  0  0
   -2.0167    0.1147   -1.3576 C   0  0  0  0  0  4           0  0  0
   -8.3019   -1.2498    0.3570 C   0  0  0  0  0  4           0  0  0
   -2.7992    0.0794   -0.1857 C   0  0  0  0  0  4           0  0  0
   -0.6322    0.0784   -1.2439 C   0  0  0  0  0  4           0  0  0
   -2.1421    0.0306    1.0751 C   0  0  0  0  0  4           0  0  0
    1.9812    1.1160    0.6443 C   0  0  0  0  0  4           0  0  0
    7.8139   -0.3058   -1.2144 C   0  0  0  0  0  4           0  0  0
    6.7475    1.1857   -2.6830 C   0  0  0  0  0  4           0  0  0
   -0.8435   -0.0067    3.5348 C   0  0  0  0  0  4           0  0  0
    6.4883   -0.6215   -0.5289 C   0  0  0  0  0  4           0  0  0
    5.3951    0.9067   -2.0325 C   0  0  0  0  0  4           0  0  0
    4.3044    0.2267    0.0370 C   0  0  0  0  0  4           0  0  0
   -9.7761   -1.2078    2.4894 C   0  0  0  0  0  4           0  0  0
    3.3198    1.3947   -0.0273 C   0  0  0  0  0  4           0  0  0
  -10.7308   -0.0187    2.4332 C   0  0  0  0  0  4           0  0  0
  -12.0140   -0.2103    3.2447 C   0  0  0  0  0  4           0  0  0
  -12.9469    0.9890    3.1713 C   0  0  0  0  0  4           0  0  0
  1 10  1  0     0  0
  1 11  1  0     0  0
  2 12  1  0     0  0
  2 21  1  0     0  0
  3 13  1  0     0  0
  3 24  1  0     0  0
  4 22  1  0     0  0
  4 23  1  0     0  0
  5 10  2  0     0  0
  5 17  1  0     0  0
  6 14  1  0     0  0
  6 15  2  0     0  0
  7 14  2  0     0  0
  7 16  1  0     0  0
  8 10  1  0     0  0
  8 15  1  0     0  0
  9 25  1  0     0  0
  9 26  1  0     0  0
  9 27  1  0     0  0
 11 17  2  0     0  0
 11 28  1  0     0  0
 12 13  1  0     0  0
 12 19  2  0     0  0
 13 20  2  0     0  0
 15 18  1  0     0  0
 16 18  2  0     0  0
 16 19  1  0     0  0
 18 20  1  0     0  0
 21 29  1  0     0  0
 22 25  1  0     0  0
 23 26  1  0     0  0
 27 29  1  0     0  0
 28 30  1  0     0  0
 30 31  1  0     0  0
 31 32  1  0     0  0
M  END
> <standard_type>
pIC50

> <# Confs.>
25

> <canonical_smiles>
COC1=CC2=C(C=C1OCCCN3CCOCC3)N=CN=C2NC4=NC=C(CCCC)S4

> <standard_relation>
=

> <Publication_ID>
nan

> <predicted_activity_value>
6.920818753952375

> <actual_activity_value>
7.200659450546418

> <Compound>
34

> <standard_units>
nM

> hash
5219477090331228072

$$$$
34_
XXILIB    08252103423D 0   0.00000     0.00000

 32 35  0     1  0            999 V2000
   -7.1559   -0.2438    2.3707 S   0  0  0  0  0  2           0  0  0
    1.3663   -0.0000   -0.0000 O   0  0  0  0  0  2           0  0  0
   -0.0478   -0.0069    2.3517 O   0  0  0  0  0  2           0  0  0
    6.2205   -2.1428    4.1749 O   0  0  0  0  0  2           0  0  0
   -7.0509   -0.9046   -0.1129 N   0  0  0  0  0  3           0  0  0
   -4.7492    0.2080   -1.6103 N   0  0  0  0  0  3           0  0  0
   -2.5579    0.1887   -2.5805 N   0  0  0  0  0  3           0  0  0
   -5.0622    0.1000    0.7547 N   0  0  0  0  0  3           0  0  0
    4.3933   -2.3760    1.9943 N   0  0  1  0  0  3           0  0  0
   -6.3330   -0.3588    0.8510 C   0  0  0  0  0  4           0  0  0
   -8.5461   -0.9676    1.6835 C   0  0  0  0  0  4           0  0  0
    0.0000    0.0000    0.0000 C   0  0  0  0  0  4           0  0  0
   -0.7474    0.0000    1.1776 C   0  0  0  0  0  4           0  0  0
   -3.8959    0.2364   -2.6429 C   0  0  0  0  0  4           0  0  0
   -4.2060    0.1093   -0.3707 C   0  0  0  0  0  4           0  0  0
   -2.0167    0.1147   -1.3576 C   0  0  0  0  0  4           0  0  0
   -8.3019   -1.2498    0.3570 C   0  0  0  0  0  4           0  0  0
   -2.7992    0.0794   -0.1857 C   0  0  0  0  0  4           0  0  0
   -0.6322    0.0784   -1.2439 C   0  0  0  0  0  4           0  0  0
   -2.1421    0.0306    1.0751 C   0  0  0  0  0  4           0  0  0
    1.9812   -1.1160    0.6443 C   0  0  0  0  0  4           0  0  0
    5.4531   -3.3326    3.9966 C   0  0  0  0  0  4           0  0  0
    5.5039   -1.0023    3.7039 C   0  0  0  0  0  4           0  0  0
   -0.8435   -0.0067    3.5348 C   0  0  0  0  0  4           0  0  0
    5.1280   -3.5384    2.5205 C   0  0  0  0  0  4           0  0  0
    5.1791   -1.1513    2.2198 C   0  0  0  0  0  4           0  0  0
    4.0846   -2.5747    0.5733 C   0  0  0  0  0  4           0  0  0
   -9.7761   -1.2078    2.4894 C   0  0  0  0  0  4           0  0  0
    3.3198   -1.3947   -0.0273 C   0  0  0  0  0  4           0  0  0
   -9.7559   -2.5794    3.1580 C   0  0  0  0  0  4           0  0  0
   -9.6644   -3.7502    2.1768 C   0  0  0  0  0  4           0  0  0
   -9.6461   -5.1045    2.8695 C   0  0  0  0  0  4           0  0  0
  1 10  1  0     0  0
  1 11  1  0     0  0
  2 12  1  0     0  0
  2 21  1  0     0  0
  3 13  1  0     0  0
  3 24  1  0     0  0
  4 22  1  0     0  0
  4 23  1  0     0  0
  5 10  2  0     0  0
  5 17  1  0     0  0
  6 14  1  0     0  0
  6 15  2  0     0  0
  7 14  2  0     0  0
  7 16  1  0     0  0
  8 10  1  0     0  0
  8 15  1  0     0  0
  9 25  1  0     0  0
  9 26  1  0     0  0
  9 27  1  0     0  0
 11 17  2  0     0  0
 11 28  1  0     0  0
 12 13  1  0     0  0
 12 19  2  0     0  0
 13 20  2  0     0  0
 15 18  1  0     0  0
 16 18  2  0     0  0
 16 19  1  0     0  0
 18 20  1  0     0  0
 21 29  1  0     0  0
 22 25  1  0     0  0
 23 26  1  0     0  0
 27 29  1  0     0  0
 28 30  1  0     0  0
 30 31  1  0     0  0
 31 32  1  0     0  0
M  END
> <standard_type>
pIC50

> <# Confs.>
25

> <canonical_smiles>
COC1=CC2=C(C=C1OCCCN3CCOCC3)N=CN=C2NC4=NC=C(CCCC)S4

> <standard_relation>
=

> <Publication_ID>
nan

> <predicted_activity_value>
6.920818753952375

> <actual_activity_value>
7.200659450546418

> <Compound>
34

> <standard_units>
nM

> hash
5219477090331228072

$$$$
34_
XXILIB    08252103423D 0   0.00000     0.00000

 32 35  0     1  0            999 V2000
   -7.1559   -0.2438    2.3707 S   0  0  0  0  0  2           0  0  0
    1.3663   -0.0000   -0.0000 O   0  0  0  0  0  2           0  0  0
   -0.0478   -0.0069    2.3517 O   0  0  0  0  0  2           0  0  0
    7.8689    1.3837   -1.1268 O   0  0  0  0  0  2           0  0  0
   -7.0509   -0.9046   -0.1129 N   0  0  0  0  0  3           0  0  0
   -4.7492    0.2080   -1.6103 N   0  0  0  0  0  3           0  0  0
   -2.5579    0.1887   -2.5805 N   0  0  0  0  0  3           0  0  0
   -5.0622    0.1000    0.7547 N   0  0  0  0  0  3           0  0  0
    5.4912   -0.1949   -1.1726 N   0  0  1  0  0  3           0  0  0
   -6.3330   -0.3588    0.8510 C   0  0  0  0  0  4           0  0  0
   -8.5461   -0.9676    1.6835 C   0  0  0  0  0  4           0  0  0
    0.0000    0.0000    0.0000 C   0  0  0  0  0  4           0  0  0
   -0.7474    0.0000    1.1776 C   0  0  0  0  0  4           0  0  0
   -3.8959    0.2364   -2.6429 C   0  0  0  0  0  4           0  0  0
   -4.2060    0.1093   -0.3707 C   0  0  0  0  0  4           0  0  0
   -2.0167    0.1147   -1.3576 C   0  0  0  0  0  4           0  0  0
   -8.3019   -1.2498    0.3570 C   0  0  0  0  0  4           0  0  0
   -2.7992    0.0794   -0.1857 C   0  0  0  0  0  4           0  0  0
   -0.6322    0.0784   -1.2439 C   0  0  0  0  0  4           0  0  0
   -2.1421    0.0306    1.0751 C   0  0  0  0  0  4           0  0  0
    1.9812   -1.2887   -0.0000 C   0  0  0  0  0  4           0  0  0
    7.4704    0.7082   -2.3189 C   0  0  0  0  0  4           0  0  0
    7.4600    0.6546    0.0296 C   0  0  0  0  0  4           0  0  0
   -0.8435   -0.0067    3.5348 C   0  0  0  0  0  4           0  0  0
    5.9540    0.5478   -2.3567 C   0  0  0  0  0  4           0  0  0
    5.9423    0.4921    0.0492 C   0  0  0  0  0  4           0  0  0
    4.0317   -0.3450   -1.2092 C   0  0  0  0  0  4           0  0  0
   -9.7761   -1.2078    2.4894 C   0  0  0  0  0  4           0  0  0
    3.4941   -1.1110   -0.0000 C   0  0  0  0  0  4           0  0  0
   -9.7559   -2.5794    3.1580 C   0  0  0  0  0  4           0  0  0
  -10.9973   -2.8808    4.0006 C   0  0  0  0  0  4           0  0  0
  -10.9511   -4.2532    4.6551 C   0  0  0  0  0  4           0  0  0
  1 10  1  0     0  0
  1 11  1  0     0  0
  2 12  1  0     0  0
  2 21  1  0     0  0
  3 13  1  0     0  0
  3 24  1  0     0  0
  4 22  1  0     0  0
  4 23  1  0     0  0
  5 10  2  0     0  0
  5 17  1  0     0  0
  6 14  1  0     0  0
  6 15  2  0     0  0
  7 14  2  0     0  0
  7 16  1  0     0  0
  8 10  1  0     0  0
  8 15  1  0     0  0
  9 25  1  0     0  0
  9 26  1  0     0  0
  9 27  1  0     0  0
 11 17  2  0     0  0
 11 28  1  0     0  0
 12 13  1  0     0  0
 12 19  2  0     0  0
 13 20  2  0     0  0
 15 18  1  0     0  0
 16 18  2  0     0  0
 16 19  1  0     0  0
 18 20  1  0     0  0
 21 29  1  0     0  0
 22 25  1  0     0  0
 23 26  1  0     0  0
 27 29  1  0     0  0
 28 30  1  0     0  0
 30 31  1  0     0  0
 31 32  1  0     0  0
M  END
> <standard_type>
pIC50

> <# Confs.>
25

> <canonical_smiles>
COC1=CC2=C(C=C1OCCCN3CCOCC3)N=CN=C2NC4=NC=C(CCCC)S4

> <standard_relation>
=

> <Publication_ID>
nan

> <predicted_activity_value>
6.920818753952375

> <actual_activity_value>
7.200659450546418

> <Compound>
34

> <standard_units>
nM

> hash
5219477090331228072

$$$$
34_
XXILIB    08252103423D 0   0.00000     0.00000

 32 35  0     1  0            999 V2000
   -7.1559   -0.2438    2.3707 S   0  0  0  0  0  2           0  0  0
    1.3663    0.0000    0.0000 O   0  0  0  0  0  2           0  0  0
   -0.0478   -0.0069    2.3517 O   0  0  0  0  0  2           0  0  0
    1.4787   -6.6957    0.7500 O   0  0  0  0  0  2           0  0  0
   -7.0509   -0.9046   -0.1129 N   0  0  0  0  0  3           0  0  0
   -4.7492    0.2080   -1.6103 N   0  0  0  0  0  3           0  0  0
   -2.5579    0.1887   -2.5805 N   0  0  0  0  0  3           0  0  0
   -5.0622    0.1000    0.7547 N   0  0  0  0  0  3           0  0  0
    2.6283   -4.0831    0.7218 N   0  0  1  0  0  3           0  0  0
   -6.3330   -0.3588    0.8510 C   0  0  0  0  0  4           0  0  0
   -8.5461   -0.9676    1.6835 C   0  0  0  0  0  4           0  0  0
    0.0000    0.0000    0.0000 C   0  0  0  0  0  4           0  0  0
   -0.7474    0.0000    1.1776 C   0  0  0  0  0  4           0  0  0
   -3.8959    0.2364   -2.6429 C   0  0  0  0  0  4           0  0  0
   -4.2060    0.1093   -0.3707 C   0  0  0  0  0  4           0  0  0
   -2.0167    0.1147   -1.3576 C   0  0  0  0  0  4           0  0  0
   -8.3019   -1.2498    0.3570 C   0  0  0  0  0  4           0  0  0
   -2.7992    0.0794   -0.1857 C   0  0  0  0  0  4           0  0  0
   -0.6322    0.0784   -1.2439 C   0  0  0  0  0  4           0  0  0
   -2.1421    0.0306    1.0751 C   0  0  0  0  0  4           0  0  0
    1.9812   -1.1160    0.6443 C   0  0  0  0  0  4           0  0  0
    0.7614   -5.5942    0.1945 C   0  0  0  0  0  4           0  0  0
    2.3249   -6.2640    1.8148 C   0  0  0  0  0  4           0  0  0
   -0.8435   -0.0067    3.5348 C   0  0  0  0  0  4           0  0  0
    1.7305   -4.5488   -0.3482 C   0  0  0  0  0  4           0  0  0
    3.3327   -5.2338    1.3117 C   0  0  0  0  0  4           0  0  0
    3.5621   -3.0800    0.1966 C   0  0  0  0  0  4           0  0  0
   -9.7761   -1.2078    2.4894 C   0  0  0  0  0  4           0  0  0
    2.8434   -1.8555   -0.3707 C   0  0  0  0  0  4           0  0  0
   -9.7559   -2.5794    3.1580 C   0  0  0  0  0  4           0  0  0
  -10.9973   -2.8808    4.0006 C   0  0  0  0  0  4           0  0  0
  -10.9511   -4.2532    4.6551 C   0  0  0  0  0  4           0  0  0
  1 10  1  0     0  0
  1 11  1  0     0  0
  2 12  1  0     0  0
  2 21  1  0     0  0
  3 13  1  0     0  0
  3 24  1  0     0  0
  4 22  1  0     0  0
  4 23  1  0     0  0
  5 10  2  0     0  0
  5 17  1  0     0  0
  6 14  1  0     0  0
  6 15  2  0     0  0
  7 14  2  0     0  0
  7 16  1  0     0  0
  8 10  1  0     0  0
  8 15  1  0     0  0
  9 25  1  0     0  0
  9 26  1  0     0  0
  9 27  1  0     0  0
 11 17  2  0     0  0
 11 28  1  0     0  0
 12 13  1  0     0  0
 12 19  2  0     0  0
 13 20  2  0     0  0
 15 18  1  0     0  0
 16 18  2  0     0  0
 16 19  1  0     0  0
 18 20  1  0     0  0
 21 29  1  0     0  0
 22 25  1  0     0  0
 23 26  1  0     0  0
 27 29  1  0     0  0
 28 30  1  0     0  0
 30 31  1  0     0  0
 31 32  1  0     0  0
M  END
> <standard_type>
pIC50

> <# Confs.>
25

> <canonical_smiles>
COC1=CC2=C(C=C1OCCCN3CCOCC3)N=CN=C2NC4=NC=C(CCCC)S4

> <standard_relation>
=

> <Publication_ID>
nan

> <predicted_activity_value>
6.920818753952375

> <actual_activity_value>
7.200659450546418

> <Compound>
34

> <standard_units>
nM

> hash
5219477090331228072

$$$$
34_
XXILIB    08252103423D 0   0.00000     0.00000

 32 35  0     1  0            999 V2000
   -7.1559   -0.2438    2.3707 S   0  0  0  0  0  2           0  0  0
    1.3663   -0.0000    0.0000 O   0  0  0  0  0  2           0  0  0
   -0.0478   -0.0069    2.3517 O   0  0  0  0  0  2           0  0  0
    6.5788   -1.4389   -4.0284 O   0  0  0  0  0  2           0  0  0
   -7.0509   -0.9046   -0.1129 N   0  0  0  0  0  3           0  0  0
   -4.7492    0.2080   -1.6103 N   0  0  0  0  0  3           0  0  0
   -2.5579    0.1887   -2.5805 N   0  0  0  0  0  3           0  0  0
   -5.0622    0.1000    0.7547 N   0  0  0  0  0  3           0  0  0
    4.5220   -1.9867   -2.1264 N   0  0  1  0  0  3           0  0  0
   -6.3330   -0.3588    0.8510 C   0  0  0  0  0  4           0  0  0
   -8.5461   -0.9676    1.6835 C   0  0  0  0  0  4           0  0  0
    0.0000    0.0000    0.0000 C   0  0  0  0  0  4           0  0  0
   -0.7474    0.0000    1.1776 C   0  0  0  0  0  4           0  0  0
   -3.8959    0.2364   -2.6429 C   0  0  0  0  0  4           0  0  0
   -4.2060    0.1093   -0.3707 C   0  0  0  0  0  4           0  0  0
   -2.0167    0.1147   -1.3576 C   0  0  0  0  0  4           0  0  0
   -8.3019   -1.2498    0.3570 C   0  0  0  0  0  4           0  0  0
   -2.7992    0.0794   -0.1857 C   0  0  0  0  0  4           0  0  0
   -0.6322    0.0784   -1.2439 C   0  0  0  0  0  4           0  0  0
   -2.1421    0.0306    1.0751 C   0  0  0  0  0  4           0  0  0
    1.9812   -1.1160    0.6443 C   0  0  0  0  0  4           0  0  0
    5.7210   -2.5673   -4.1935 C   0  0  0  0  0  4           0  0  0
    6.7743   -1.1491   -2.6450 C   0  0  0  0  0  4           0  0  0
   -0.8435   -0.0067    3.5348 C   0  0  0  0  0  4           0  0  0
    4.3613   -2.2983   -3.5565 C   0  0  0  0  0  4           0  0  0
    5.4395   -0.8458   -1.9693 C   0  0  0  0  0  4           0  0  0
    3.2131   -1.7249   -1.5165 C   0  0  0  0  0  4           0  0  0
   -9.7761   -1.2078    2.4894 C   0  0  0  0  0  4           0  0  0
    3.3198   -1.3947   -0.0273 C   0  0  0  0  0  4           0  0  0
  -10.7308   -0.0187    2.4332 C   0  0  0  0  0  4           0  0  0
  -11.2161    0.3254    1.0233 C   0  0  0  0  0  4           0  0  0
  -12.1657    1.5135    0.9963 C   0  0  0  0  0  4           0  0  0
  1 10  1  0     0  0
  1 11  1  0     0  0
  2 12  1  0     0  0
  2 21  1  0     0  0
  3 13  1  0     0  0
  3 24  1  0     0  0
  4 22  1  0     0  0
  4 23  1  0     0  0
  5 10  2  0     0  0
  5 17  1  0     0  0
  6 14  1  0     0  0
  6 15  2  0     0  0
  7 14  2  0     0  0
  7 16  1  0     0  0
  8 10  1  0     0  0
  8 15  1  0     0  0
  9 25  1  0     0  0
  9 26  1  0     0  0
  9 27  1  0     0  0
 11 17  2  0     0  0
 11 28  1  0     0  0
 12 13  1  0     0  0
 12 19  2  0     0  0
 13 20  2  0     0  0
 15 18  1  0     0  0
 16 18  2  0     0  0
 16 19  1  0     0  0
 18 20  1  0     0  0
 21 29  1  0     0  0
 22 25  1  0     0  0
 23 26  1  0     0  0
 27 29  1  0     0  0
 28 30  1  0     0  0
 30 31  1  0     0  0
 31 32  1  0     0  0
M  END
> <standard_type>
pIC50

> <# Confs.>
25

> <canonical_smiles>
COC1=CC2=C(C=C1OCCCN3CCOCC3)N=CN=C2NC4=NC=C(CCCC)S4

> <standard_relation>
=

> <Publication_ID>
nan

> <predicted_activity_value>
6.920818753952375

> <actual_activity_value>
7.200659450546418

> <Compound>
34

> <standard_units>
nM

> hash
5219477090331228072

$$$$
34_
XXILIB    08252103423D 0   0.00000     0.00000

 32 35  0     1  0            999 V2000
   -7.1559   -0.2438    2.3707 S   0  0  0  0  0  2           0  0  0
    1.3663   -0.0000   -0.0000 O   0  0  0  0  0  2           0  0  0
   -0.0478   -0.0069    2.3517 O   0  0  0  0  0  2           0  0  0
    7.8689    1.3837   -1.1268 O   0  0  0  0  0  2           0  0  0
   -7.0509   -0.9046   -0.1129 N   0  0  0  0  0  3           0  0  0
   -4.7492    0.2080   -1.6103 N   0  0  0  0  0  3           0  0  0
   -2.5579    0.1887   -2.5805 N   0  0  0  0  0  3           0  0  0
   -5.0622    0.1000    0.7547 N   0  0  0  0  0  3           0  0  0
    5.4912   -0.1949   -1.1726 N   0  0  1  0  0  3           0  0  0
   -6.3330   -0.3588    0.8510 C   0  0  0  0  0  4           0  0  0
   -8.5461   -0.9676    1.6835 C   0  0  0  0  0  4           0  0  0
    0.0000    0.0000    0.0000 C   0  0  0  0  0  4           0  0  0
   -0.7474    0.0000    1.1776 C   0  0  0  0  0  4           0  0  0
   -3.8959    0.2364   -2.6429 C   0  0  0  0  0  4           0  0  0
   -4.2060    0.1093   -0.3707 C   0  0  0  0  0  4           0  0  0
   -2.0167    0.1147   -1.3576 C   0  0  0  0  0  4           0  0  0
   -8.3019   -1.2498    0.3570 C   0  0  0  0  0  4           0  0  0
   -2.7992    0.0794   -0.1857 C   0  0  0  0  0  4           0  0  0
   -0.6322    0.0784   -1.2439 C   0  0  0  0  0  4           0  0  0
   -2.1421    0.0306    1.0751 C   0  0  0  0  0  4           0  0  0
    1.9812   -1.2887   -0.0000 C   0  0  0  0  0  4           0  0  0
    7.4704    0.7082   -2.3189 C   0  0  0  0  0  4           0  0  0
    7.4600    0.6546    0.0296 C   0  0  0  0  0  4           0  0  0
   -0.8435   -0.0067    3.5348 C   0  0  0  0  0  4           0  0  0
    5.9540    0.5478   -2.3567 C   0  0  0  0  0  4           0  0  0
    5.9423    0.4921    0.0492 C   0  0  0  0  0  4           0  0  0
    4.0317   -0.3450   -1.2092 C   0  0  0  0  0  4           0  0  0
   -9.7761   -1.2078    2.4894 C   0  0  0  0  0  4           0  0  0
    3.4941   -1.1110   -0.0000 C   0  0  0  0  0  4           0  0  0
  -10.7308   -0.0187    2.4332 C   0  0  0  0  0  4           0  0  0
  -12.0140   -0.2103    3.2447 C   0  0  0  0  0  4           0  0  0
  -12.9469    0.9890    3.1713 C   0  0  0  0  0  4           0  0  0
  1 10  1  0     0  0
  1 11  1  0     0  0
  2 12  1  0     0  0
  2 21  1  0     0  0
  3 13  1  0     0  0
  3 24  1  0     0  0
  4 22  1  0     0  0
  4 23  1  0     0  0
  5 10  2  0     0  0
  5 17  1  0     0  0
  6 14  1  0     0  0
  6 15  2  0     0  0
  7 14  2  0     0  0
  7 16  1  0     0  0
  8 10  1  0     0  0
  8 15  1  0     0  0
  9 25  1  0     0  0
  9 26  1  0     0  0
  9 27  1  0     0  0
 11 17  2  0     0  0
 11 28  1  0     0  0
 12 13  1  0     0  0
 12 19  2  0     0  0
 13 20  2  0     0  0
 15 18  1  0     0  0
 16 18  2  0     0  0
 16 19  1  0     0  0
 18 20  1  0     0  0
 21 29  1  0     0  0
 22 25  1  0     0  0
 23 26  1  0     0  0
 27 29  1  0     0  0
 28 30  1  0     0  0
 30 31  1  0     0  0
 31 32  1  0     0  0
M  END
> <standard_type>
pIC50

> <# Confs.>
25

> <canonical_smiles>
COC1=CC2=C(C=C1OCCCN3CCOCC3)N=CN=C2NC4=NC=C(CCCC)S4

> <standard_relation>
=

> <Publication_ID>
nan

> <predicted_activity_value>
6.920818753952375

> <actual_activity_value>
7.200659450546418

> <Compound>
34

> <standard_units>
nM

> hash
5219477090331228072

$$$$
31_
XXILIB    08252103423D 0   0.00000     0.00000

 38 42  0     1  0            999 V2000
   -7.2827    0.4676    2.3037 S   0  0  0  0  0  2           0  0  0
  -12.0161    4.1892   -6.2092 F   0  0  0  0  0  1           0  0  0
    1.3665   -0.0000   -0.0000 O   0  0  0  0  0  2           0  0  0
   -0.0434   -0.0157    2.3502 O   0  0  0  0  0  2           0  0  0
  -10.1369    3.1184   -0.0186 O   0  0  0  0  0  2           0  0  0
    2.9652   -6.5370   -0.2985 O   0  0  0  0  0  2           0  0  0
   -4.7535    0.1311   -1.6038 N   0  0  0  0  0  3           0  0  0
   -2.5630    0.1450   -2.5763 N   0  0  0  0  0  3           0  0  0
   -5.0644    0.0745    0.7628 N   0  0  0  0  0  3           0  0  0
   -9.1698    2.1886   -1.9060 N   0  0  0  0  0  3           0  0  0
    3.2789   -3.8200    0.5219 N   0  0  2  0  0  3           0  0  0
   -6.3184    0.5736    0.8847 C   0  0  0  0  0  4           0  0  0
   -8.5839    1.2958    1.5745 C   0  0  0  0  0  4           0  0  0
  -11.3349    3.7099   -5.1595 C   0  0  0  0  0  4           0  0  0
    0.0000    0.0000    0.0000 C   0  0  0  0  0  4           0  0  0
   -0.7454   -0.0000    1.1787 C   0  0  0  0  0  4           0  0  0
   -3.9020    0.1515   -2.6379 C   0  0  0  0  0  4           0  0  0
   -4.2075    0.1184   -0.3620 C   0  0  0  0  0  4           0  0  0
   -2.0197    0.1040   -1.3533 C   0  0  0  0  0  4           0  0  0
   -9.9182    2.7173   -2.9772 C   0  0  0  0  0  4           0  0  0
   -2.8001    0.0834   -0.1795 C   0  0  0  0  0  4           0  0  0
   -8.3250    1.6693    0.2706 C   0  0  0  0  0  4           0  0  0
   -7.0093    1.2411   -0.1129 C   0  0  0  0  0  4           0  0  0
  -11.6959    4.0984   -3.8735 C   0  0  0  0  0  4           0  0  0
  -10.2781    2.8309   -5.3722 C   0  0  0  0  0  4           0  0  0
   -0.6347    0.0732   -1.2426 C   0  0  0  0  0  4           0  0  0
   -2.1406    0.0295    1.0793 C   0  0  0  0  0  4           0  0  0
  -10.9867    3.6023   -2.7788 C   0  0  0  0  0  4           0  0  0
   -9.5686    2.3341   -4.2788 C   0  0  0  0  0  4           0  0  0
   -9.2929    2.3918   -0.5395 C   0  0  0  0  0  4           0  0  0
    1.9811   -1.1163    0.6445 C   0  0  0  0  0  4           0  0  0
    3.2518   -6.2201    1.0632 C   0  0  0  0  0  4           0  0  0
    2.1929   -5.5022   -0.9067 C   0  0  0  0  0  4           0  0  0
   -0.8331   -0.0152    3.5364 C   0  0  0  0  0  4           0  0  0
    4.0360   -4.9150    1.1501 C   0  0  0  0  0  4           0  0  0
    2.9507   -4.1774   -0.8684 C   0  0  0  0  0  4           0  0  0
    4.0425   -2.5714    0.5991 C   0  0  0  0  0  4           0  0  0
    3.3157   -1.3825   -0.0365 C   0  0  0  0  0  4           0  0  0
  1 12  1  0     0  0
  1 13  1  0     0  0
  2 14  1  0     0  0
  3 15  1  0     0  0
  3 31  1  0     0  0
  4 16  1  0     0  0
  4 34  1  0     0  0
  5 30  2  0     0  0
  6 32  1  0     0  0
  6 33  1  0     0  0
  7 17  1  0     0  0
  7 18  2  0     0  0
  8 17  2  0     0  0
  8 19  1  0     0  0
  9 12  1  0     0  0
  9 18  1  0     0  0
 10 20  1  0     0  0
 10 30  1  0     0  0
 11 35  1  0     0  0
 11 36  1  0     0  0
 11 37  1  0     0  0
 12 23  2  0     0  0
 13 22  2  0     0  0
 14 24  2  0     0  0
 14 25  1  0     0  0
 15 16  1  0     0  0
 15 26  2  0     0  0
 16 27  2  0     0  0
 18 21  1  0     0  0
 19 21  2  0     0  0
 19 26  1  0     0  0
 20 28  2  0     0  0
 20 29  1  0     0  0
 21 27  1  0     0  0
 22 23  1  0     0  0
 22 30  1  0     0  0
 24 28  1  0     0  0
 25 29  2  0     0  0
 31 38  1  0     0  0
 32 35  1  0     0  0
 33 36  1  0     0  0
 37 38  1  0     0  0
M  END
> <standard_type>
pIC50

> <# Confs.>
25

> <canonical_smiles>
COC1=CC2=C(C=C1OCCCN3CCOCC3)N=CN=C2NC4=CC(C(NC5=CC=C(F)C=C5)=O)=CS4

> <standard_relation>
=

> <Publication_ID>
nan

> <predicted_activity_value>
7.309803919971486

> <actual_activity_value>
7.318758762624412

> <Compound>
31

> <standard_units>
nM

> hash
17356734584795054981

$$$$
31_
XXILIB    08252103423D 0   0.00000     0.00000

 38 42  0     1  0            999 V2000
   -7.2827    0.4676    2.3037 S   0  0  0  0  0  2           0  0  0
  -11.0336    6.4745   -5.3452 F   0  0  0  0  0  1           0  0  0
    1.3665   -0.0000   -0.0000 O   0  0  0  0  0  2           0  0  0
   -0.0434   -0.0157    2.3502 O   0  0  0  0  0  2           0  0  0
  -10.4993    2.2876   -0.3266 O   0  0  0  0  0  2           0  0  0
    2.9652   -6.5370   -0.2985 O   0  0  0  0  0  2           0  0  0
   -4.7535    0.1311   -1.6038 N   0  0  0  0  0  3           0  0  0
   -2.5630    0.1450   -2.5763 N   0  0  0  0  0  3           0  0  0
   -5.0644    0.0745    0.7628 N   0  0  0  0  0  3           0  0  0
   -8.7385    3.1820   -1.5355 N   0  0  0  0  0  3           0  0  0
    3.2789   -3.8200    0.5219 N   0  0  2  0  0  3           0  0  0
   -6.3184    0.5736    0.8847 C   0  0  0  0  0  4           0  0  0
   -8.5839    1.2958    1.5745 C   0  0  0  0  0  4           0  0  0
  -10.4889    5.6732   -4.4194 C   0  0  0  0  0  4           0  0  0
    0.0000    0.0000    0.0000 C   0  0  0  0  0  4           0  0  0
   -0.7454   -0.0000    1.1787 C   0  0  0  0  0  4           0  0  0
   -3.9020    0.1515   -2.6379 C   0  0  0  0  0  4           0  0  0
   -4.2075    0.1184   -0.3620 C   0  0  0  0  0  4           0  0  0
   -2.0197    0.1040   -1.3533 C   0  0  0  0  0  4           0  0  0
   -9.3585    4.0102   -2.4929 C   0  0  0  0  0  4           0  0  0
   -2.8001    0.0834   -0.1795 C   0  0  0  0  0  4           0  0  0
   -8.3250    1.6693    0.2706 C   0  0  0  0  0  4           0  0  0
   -7.0093    1.2411   -0.1129 C   0  0  0  0  0  4           0  0  0
  -11.3154    4.9885   -3.5344 C   0  0  0  0  0  4           0  0  0
   -9.1059    5.5382   -4.3584 C   0  0  0  0  0  4           0  0  0
   -0.6347    0.0732   -1.2426 C   0  0  0  0  0  4           0  0  0
   -2.1406    0.0295    1.0793 C   0  0  0  0  0  4           0  0  0
  -10.7505    4.1551   -2.5680 C   0  0  0  0  0  4           0  0  0
   -8.5401    4.7052   -3.3931 C   0  0  0  0  0  4           0  0  0
   -9.2929    2.3918   -0.5395 C   0  0  0  0  0  4           0  0  0
    1.9811   -1.1163    0.6445 C   0  0  0  0  0  4           0  0  0
    3.2518   -6.2201    1.0632 C   0  0  0  0  0  4           0  0  0
    2.1929   -5.5022   -0.9067 C   0  0  0  0  0  4           0  0  0
   -0.8331   -0.0152    3.5364 C   0  0  0  0  0  4           0  0  0
    4.0360   -4.9150    1.1501 C   0  0  0  0  0  4           0  0  0
    2.9507   -4.1774   -0.8684 C   0  0  0  0  0  4           0  0  0
    4.0425   -2.5714    0.5991 C   0  0  0  0  0  4           0  0  0
    3.3157   -1.3825   -0.0365 C   0  0  0  0  0  4           0  0  0
  1 12  1  0     0  0
  1 13  1  0     0  0
  2 14  1  0     0  0
  3 15  1  0     0  0
  3 31  1  0     0  0
  4 16  1  0     0  0
  4 34  1  0     0  0
  5 30  2  0     0  0
  6 32  1  0     0  0
  6 33  1  0     0  0
  7 17  1  0     0  0
  7 18  2  0     0  0
  8 17  2  0     0  0
  8 19  1  0     0  0
  9 12  1  0     0  0
  9 18  1  0     0  0
 10 20  1  0     0  0
 10 30  1  0     0  0
 11 35  1  0     0  0
 11 36  1  0     0  0
 11 37  1  0     0  0
 12 23  2  0     0  0
 13 22  2  0     0  0
 14 24  2  0     0  0
 14 25  1  0     0  0
 15 16  1  0     0  0
 15 26  2  0     0  0
 16 27  2  0     0  0
 18 21  1  0     0  0
 19 21  2  0     0  0
 19 26  1  0     0  0
 20 28  2  0     0  0
 20 29  1  0     0  0
 21 27  1  0     0  0
 22 23  1  0     0  0
 22 30  1  0     0  0
 24 28  1  0     0  0
 25 29  2  0     0  0
 31 38  1  0     0  0
 32 35  1  0     0  0
 33 36  1  0     0  0
 37 38  1  0     0  0
M  END
> <standard_type>
pIC50

> <# Confs.>
25

> <canonical_smiles>
COC1=CC2=C(C=C1OCCCN3CCOCC3)N=CN=C2NC4=CC(C(NC5=CC=C(F)C=C5)=O)=CS4

> <standard_relation>
=

> <Publication_ID>
nan

> <predicted_activity_value>
7.309803919971486

> <actual_activity_value>
7.318758762624412

> <Compound>
31

> <standard_units>
nM

> hash
17356734584795054981

$$$$
31_
XXILIB    08252103423D 0   0.00000     0.00000

 38 42  0     1  0            999 V2000
   -7.2827    0.4676    2.3037 S   0  0  0  0  0  2           0  0  0
  -12.0161    4.1892   -6.2092 F   0  0  0  0  0  1           0  0  0
    1.3665   -0.0000    0.0000 O   0  0  0  0  0  2           0  0  0
   -0.0434   -0.0157    2.3502 O   0  0  0  0  0  2           0  0  0
  -10.1369    3.1184   -0.0186 O   0  0  0  0  0  2           0  0  0
    7.5472    0.2752   -2.5076 O   0  0  0  0  0  2           0  0  0
   -4.7535    0.1311   -1.6038 N   0  0  0  0  0  3           0  0  0
   -2.5630    0.1450   -2.5763 N   0  0  0  0  0  3           0  0  0
   -5.0644    0.0745    0.7628 N   0  0  0  0  0  3           0  0  0
   -9.1698    2.1886   -1.9060 N   0  0  0  0  0  3           0  0  0
    5.5447   -0.3891   -0.5835 N   0  0  2  0  0  3           0  0  0
   -6.3184    0.5736    0.8847 C   0  0  0  0  0  4           0  0  0
   -8.5839    1.2958    1.5745 C   0  0  0  0  0  4           0  0  0
  -11.3349    3.7099   -5.1595 C   0  0  0  0  0  4           0  0  0
    0.0000    0.0000    0.0000 C   0  0  0  0  0  4           0  0  0
   -0.7454   -0.0000    1.1787 C   0  0  0  0  0  4           0  0  0
   -3.9020    0.1515   -2.6379 C   0  0  0  0  0  4           0  0  0
   -4.2075    0.1184   -0.3620 C   0  0  0  0  0  4           0  0  0
   -2.0197    0.1040   -1.3533 C   0  0  0  0  0  4           0  0  0
   -9.9182    2.7173   -2.9772 C   0  0  0  0  0  4           0  0  0
   -2.8001    0.0834   -0.1795 C   0  0  0  0  0  4           0  0  0
   -8.3250    1.6693    0.2706 C   0  0  0  0  0  4           0  0  0
   -7.0093    1.2411   -0.1129 C   0  0  0  0  0  4           0  0  0
  -11.6959    4.0984   -3.8735 C   0  0  0  0  0  4           0  0  0
  -10.2781    2.8309   -5.3722 C   0  0  0  0  0  4           0  0  0
   -0.6347    0.0732   -1.2426 C   0  0  0  0  0  4           0  0  0
   -2.1406    0.0295    1.0793 C   0  0  0  0  0  4           0  0  0
  -10.9867    3.6023   -2.7788 C   0  0  0  0  0  4           0  0  0
   -9.5686    2.3341   -4.2788 C   0  0  0  0  0  4           0  0  0
   -9.2929    2.3918   -0.5395 C   0  0  0  0  0  4           0  0  0
    1.9811   -1.1163    0.6445 C   0  0  0  0  0  4           0  0  0
    7.7323    0.5962   -1.1294 C   0  0  0  0  0  4           0  0  0
    6.7711   -0.9140   -2.6500 C   0  0  0  0  0  4           0  0  0
   -0.8331   -0.0152    3.5364 C   0  0  0  0  0  4           0  0  0
    6.3842    0.8126   -0.4497 C   0  0  0  0  0  4           0  0  0
    5.3978   -0.7359   -2.0070 C   0  0  0  0  0  4           0  0  0
    4.2471   -0.1708    0.0621 C   0  0  0  0  0  4           0  0  0
    3.3157   -1.3825   -0.0365 C   0  0  0  0  0  4           0  0  0
  1 12  1  0     0  0
  1 13  1  0     0  0
  2 14  1  0     0  0
  3 15  1  0     0  0
  3 31  1  0     0  0
  4 16  1  0     0  0
  4 34  1  0     0  0
  5 30  2  0     0  0
  6 32  1  0     0  0
  6 33  1  0     0  0
  7 17  1  0     0  0
  7 18  2  0     0  0
  8 17  2  0     0  0
  8 19  1  0     0  0
  9 12  1  0     0  0
  9 18  1  0     0  0
 10 20  1  0     0  0
 10 30  1  0     0  0
 11 35  1  0     0  0
 11 36  1  0     0  0
 11 37  1  0     0  0
 12 23  2  0     0  0
 13 22  2  0     0  0
 14 24  2  0     0  0
 14 25  1  0     0  0
 15 16  1  0     0  0
 15 26  2  0     0  0
 16 27  2  0     0  0
 18 21  1  0     0  0
 19 21  2  0     0  0
 19 26  1  0     0  0
 20 28  2  0     0  0
 20 29  1  0     0  0
 21 27  1  0     0  0
 22 23  1  0     0  0
 22 30  1  0     0  0
 24 28  1  0     0  0
 25 29  2  0     0  0
 31 38  1  0     0  0
 32 35  1  0     0  0
 33 36  1  0     0  0
 37 38  1  0     0  0
M  END
> <standard_type>
pIC50

> <# Confs.>
25

> <canonical_smiles>
COC1=CC2=C(C=C1OCCCN3CCOCC3)N=CN=C2NC4=CC(C(NC5=CC=C(F)C=C5)=O)=CS4

> <standard_relation>
=

> <Publication_ID>
nan

> <predicted_activity_value>
7.309803919971486

> <actual_activity_value>
7.318758762624412

> <Compound>
31

> <standard_units>
nM

> hash
17356734584795054981

$$$$
31_
XXILIB    08252103423D 0   0.00000     0.00000

 38 42  0     1  0            999 V2000
   -7.2827    0.4676    2.3037 S   0  0  0  0  0  2           0  0  0
  -12.0161    4.1892   -6.2092 F   0  0  0  0  0  1           0  0  0
    1.3665   -0.0000   -0.0000 O   0  0  0  0  0  2           0  0  0
   -0.0434   -0.0157    2.3502 O   0  0  0  0  0  2           0  0  0
  -10.1369    3.1184   -0.0186 O   0  0  0  0  0  2           0  0  0
    8.1720   -3.1622    0.0601 O   0  0  0  0  0  2           0  0  0
   -4.7535    0.1311   -1.6038 N   0  0  0  0  0  3           0  0  0
   -2.5630    0.1450   -2.5763 N   0  0  0  0  0  3           0  0  0
   -5.0644    0.0745    0.7628 N   0  0  0  0  0  3           0  0  0
   -9.1698    2.1886   -1.9060 N   0  0  0  0  0  3           0  0  0
    5.3341   -2.8591   -0.0309 N   0  0  2  0  0  3           0  0  0
   -6.3184    0.5736    0.8847 C   0  0  0  0  0  4           0  0  0
   -8.5839    1.2958    1.5745 C   0  0  0  0  0  4           0  0  0
  -11.3349    3.7099   -5.1595 C   0  0  0  0  0  4           0  0  0
    0.0000    0.0000    0.0000 C   0  0  0  0  0  4           0  0  0
   -0.7454   -0.0000    1.1787 C   0  0  0  0  0  4           0  0  0
   -3.9020    0.1515   -2.6379 C   0  0  0  0  0  4           0  0  0
   -4.2075    0.1184   -0.3620 C   0  0  0  0  0  4           0  0  0
   -2.0197    0.1040   -1.3533 C   0  0  0  0  0  4           0  0  0
   -9.9182    2.7173   -2.9772 C   0  0  0  0  0  4           0  0  0
   -2.8001    0.0834   -0.1795 C   0  0  0  0  0  4           0  0  0
   -8.3250    1.6693    0.2706 C   0  0  0  0  0  4           0  0  0
   -7.0093    1.2411   -0.1129 C   0  0  0  0  0  4           0  0  0
  -11.6959    4.0984   -3.8735 C   0  0  0  0  0  4           0  0  0
  -10.2781    2.8309   -5.3722 C   0  0  0  0  0  4           0  0  0
   -0.6347    0.0732   -1.2426 C   0  0  0  0  0  4           0  0  0
   -2.1406    0.0295    1.0793 C   0  0  0  0  0  4           0  0  0
  -10.9867    3.6023   -2.7788 C   0  0  0  0  0  4           0  0  0
   -9.5686    2.3341   -4.2788 C   0  0  0  0  0  4           0  0  0
   -9.2929    2.3918   -0.5395 C   0  0  0  0  0  4           0  0  0
    1.9811   -1.1163    0.6445 C   0  0  0  0  0  4           0  0  0
    7.3234   -4.3072   -0.0145 C   0  0  0  0  0  4           0  0  0
    7.5827   -2.0513   -0.6150 C   0  0  0  0  0  4           0  0  0
   -0.8331   -0.0152    3.5364 C   0  0  0  0  0  4           0  0  0
    5.9731   -4.0093    0.6291 C   0  0  0  0  0  4           0  0  0
    6.2372   -1.6969    0.0133 C   0  0  0  0  0  4           0  0  0
    4.0425   -2.5714    0.5991 C   0  0  0  0  0  4           0  0  0
    3.3157   -1.3825   -0.0365 C   0  0  0  0  0  4           0  0  0
  1 12  1  0     0  0
  1 13  1  0     0  0
  2 14  1  0     0  0
  3 15  1  0     0  0
  3 31  1  0     0  0
  4 16  1  0     0  0
  4 34  1  0     0  0
  5 30  2  0     0  0
  6 32  1  0     0  0
  6 33  1  0     0  0
  7 17  1  0     0  0
  7 18  2  0     0  0
  8 17  2  0     0  0
  8 19  1  0     0  0
  9 12  1  0     0  0
  9 18  1  0     0  0
 10 20  1  0     0  0
 10 30  1  0     0  0
 11 35  1  0     0  0
 11 36  1  0     0  0
 11 37  1  0     0  0
 12 23  2  0     0  0
 13 22  2  0     0  0
 14 24  2  0     0  0
 14 25  1  0     0  0
 15 16  1  0     0  0
 15 26  2  0     0  0
 16 27  2  0     0  0
 18 21  1  0     0  0
 19 21  2  0     0  0
 19 26  1  0     0  0
 20 28  2  0     0  0
 20 29  1  0     0  0
 21 27  1  0     0  0
 22 23  1  0     0  0
 22 30  1  0     0  0
 24 28  1  0     0  0
 25 29  2  0     0  0
 31 38  1  0     0  0
 32 35  1  0     0  0
 33 36  1  0     0  0
 37 38  1  0     0  0
M  END
> <standard_type>
pIC50

> <# Confs.>
25

> <canonical_smiles>
COC1=CC2=C(C=C1OCCCN3CCOCC3)N=CN=C2NC4=CC(C(NC5=CC=C(F)C=C5)=O)=CS4

> <standard_relation>
=

> <Publication_ID>
nan

> <predicted_activity_value>
7.309803919971486

> <actual_activity_value>
7.318758762624412

> <Compound>
31

> <standard_units>
nM

> hash
17356734584795054981

$$$$
31_
XXILIB    08252103423D 0   0.00000     0.00000

 38 42  0     1  0            999 V2000
   -7.2827    0.4676    2.3037 S   0  0  0  0  0  2           0  0  0
  -12.0161    4.1892   -6.2092 F   0  0  0  0  0  1           0  0  0
    1.3665   -0.0000    0.0000 O   0  0  0  0  0  2           0  0  0
   -0.0434   -0.0157    2.3502 O   0  0  0  0  0  2           0  0  0
  -10.1369    3.1184   -0.0186 O   0  0  0  0  0  2           0  0  0
    6.1416    2.1779    4.2228 O   0  0  0  0  0  2           0  0  0
   -4.7535    0.1311   -1.6038 N   0  0  0  0  0  3           0  0  0
   -2.5630    0.1450   -2.5763 N   0  0  0  0  0  3           0  0  0
   -5.0644    0.0745    0.7628 N   0  0  0  0  0  3           0  0  0
   -9.1698    2.1886   -1.9060 N   0  0  0  0  0  3           0  0  0
    4.3328    2.3737    2.0220 N   0  0  2  0  0  3           0  0  0
   -6.3184    0.5736    0.8847 C   0  0  0  0  0  4           0  0  0
   -8.5839    1.2958    1.5745 C   0  0  0  0  0  4           0  0  0
  -11.3349    3.7099   -5.1595 C   0  0  0  0  0  4           0  0  0
    0.0000    0.0000    0.0000 C   0  0  0  0  0  4           0  0  0
   -0.7454   -0.0000    1.1787 C   0  0  0  0  0  4           0  0  0
   -3.9020    0.1515   -2.6379 C   0  0  0  0  0  4           0  0  0
   -4.2075    0.1184   -0.3620 C   0  0  0  0  0  4           0  0  0
   -2.0197    0.1040   -1.3533 C   0  0  0  0  0  4           0  0  0
   -9.9182    2.7173   -2.9772 C   0  0  0  0  0  4           0  0  0
   -2.8001    0.0834   -0.1795 C   0  0  0  0  0  4           0  0  0
   -8.3250    1.6693    0.2706 C   0  0  0  0  0  4           0  0  0
   -7.0093    1.2411   -0.1129 C   0  0  0  0  0  4           0  0  0
  -11.6959    4.0984   -3.8735 C   0  0  0  0  0  4           0  0  0
  -10.2781    2.8309   -5.3722 C   0  0  0  0  0  4           0  0  0
   -0.6347    0.0732   -1.2426 C   0  0  0  0  0  4           0  0  0
   -2.1406    0.0295    1.0793 C   0  0  0  0  0  4           0  0  0
  -10.9867    3.6023   -2.7788 C   0  0  0  0  0  4           0  0  0
   -9.5686    2.3341   -4.2788 C   0  0  0  0  0  4           0  0  0
   -9.2929    2.3918   -0.5395 C   0  0  0  0  0  4           0  0  0
    1.9811    1.1163    0.6445 C   0  0  0  0  0  4           0  0  0
    5.3447    3.3480    4.0422 C   0  0  0  0  0  4           0  0  0
    5.4581    1.0213    3.7410 C   0  0  0  0  0  4           0  0  0
   -0.8331   -0.0152    3.5364 C   0  0  0  0  0  4           0  0  0
    5.0294    3.5518    2.5640 C   0  0  0  0  0  4           0  0  0
    5.1443    1.1671    2.2539 C   0  0  0  0  0  4           0  0  0
    4.0425    2.5714    0.5991 C   0  0  0  0  0  4           0  0  0
    3.3157    1.3825   -0.0365 C   0  0  0  0  0  4           0  0  0
  1 12  1  0     0  0
  1 13  1  0     0  0
  2 14  1  0     0  0
  3 15  1  0     0  0
  3 31  1  0     0  0
  4 16  1  0     0  0
  4 34  1  0     0  0
  5 30  2  0     0  0
  6 32  1  0     0  0
  6 33  1  0     0  0
  7 17  1  0     0  0
  7 18  2  0     0  0
  8 17  2  0     0  0
  8 19  1  0     0  0
  9 12  1  0     0  0
  9 18  1  0     0  0
 10 20  1  0     0  0
 10 30  1  0     0  0
 11 35  1  0     0  0
 11 36  1  0     0  0
 11 37  1  0     0  0
 12 23  2  0     0  0
 13 22  2  0     0  0
 14 24  2  0     0  0
 14 25  1  0     0  0
 15 16  1  0     0  0
 15 26  2  0     0  0
 16 27  2  0     0  0
 18 21  1  0     0  0
 19 21  2  0     0  0
 19 26  1  0     0  0
 20 28  2  0     0  0
 20 29  1  0     0  0
 21 27  1  0     0  0
 22 23  1  0     0  0
 22 30  1  0     0  0
 24 28  1  0     0  0
 25 29  2  0     0  0
 31 38  1  0     0  0
 32 35  1  0     0  0
 33 36  1  0     0  0
 37 38  1  0     0  0
M  END
> <standard_type>
pIC50

> <# Confs.>
25

> <canonical_smiles>
COC1=CC2=C(C=C1OCCCN3CCOCC3)N=CN=C2NC4=CC(C(NC5=CC=C(F)C=C5)=O)=CS4

> <standard_relation>
=

> <Publication_ID>
nan

> <predicted_activity_value>
7.309803919971486

> <actual_activity_value>
7.318758762624412

> <Compound>
31

> <standard_units>
nM

> hash
17356734584795054981

$$$$
31_
XXILIB    08252103423D 0   0.00000     0.00000

 38 42  0     1  0            999 V2000
   -7.2827    0.4676    2.3037 S   0  0  0  0  0  2           0  0  0
  -11.0336    6.4745   -5.3452 F   0  0  0  0  0  1           0  0  0
    1.3665   -0.0000    0.0000 O   0  0  0  0  0  2           0  0  0
   -0.0434   -0.0157    2.3502 O   0  0  0  0  0  2           0  0  0
  -10.4993    2.2876   -0.3266 O   0  0  0  0  0  2           0  0  0
    7.5472    0.2752   -2.5076 O   0  0  0  0  0  2           0  0  0
   -4.7535    0.1311   -1.6038 N   0  0  0  0  0  3           0  0  0
   -2.5630    0.1450   -2.5763 N   0  0  0  0  0  3           0  0  0
   -5.0644    0.0745    0.7628 N   0  0  0  0  0  3           0  0  0
   -8.7385    3.1820   -1.5355 N   0  0  0  0  0  3           0  0  0
    5.5447   -0.3891   -0.5835 N   0  0  2  0  0  3           0  0  0
   -6.3184    0.5736    0.8847 C   0  0  0  0  0  4           0  0  0
   -8.5839    1.2958    1.5745 C   0  0  0  0  0  4           0  0  0
  -10.4889    5.6732   -4.4194 C   0  0  0  0  0  4           0  0  0
    0.0000    0.0000    0.0000 C   0  0  0  0  0  4           0  0  0
   -0.7454   -0.0000    1.1787 C   0  0  0  0  0  4           0  0  0
   -3.9020    0.1515   -2.6379 C   0  0  0  0  0  4           0  0  0
   -4.2075    0.1184   -0.3620 C   0  0  0  0  0  4           0  0  0
   -2.0197    0.1040   -1.3533 C   0  0  0  0  0  4           0  0  0
   -9.3585    4.0102   -2.4929 C   0  0  0  0  0  4           0  0  0
   -2.8001    0.0834   -0.1795 C   0  0  0  0  0  4           0  0  0
   -8.3250    1.6693    0.2706 C   0  0  0  0  0  4           0  0  0
   -7.0093    1.2411   -0.1129 C   0  0  0  0  0  4           0  0  0
  -11.3154    4.9885   -3.5344 C   0  0  0  0  0  4           0  0  0
   -9.1059    5.5382   -4.3584 C   0  0  0  0  0  4           0  0  0
   -0.6347    0.0732   -1.2426 C   0  0  0  0  0  4           0  0  0
   -2.1406    0.0295    1.0793 C   0  0  0  0  0  4           0  0  0
  -10.7505    4.1551   -2.5680 C   0  0  0  0  0  4           0  0  0
   -8.5401    4.7052   -3.3931 C   0  0  0  0  0  4           0  0  0
   -9.2929    2.3918   -0.5395 C   0  0  0  0  0  4           0  0  0
    1.9811   -1.1163    0.6445 C   0  0  0  0  0  4           0  0  0
    7.7323    0.5962   -1.1294 C   0  0  0  0  0  4           0  0  0
    6.7711   -0.9140   -2.6500 C   0  0  0  0  0  4           0  0  0
   -0.8331   -0.0152    3.5364 C   0  0  0  0  0  4           0  0  0
    6.3842    0.8126   -0.4497 C   0  0  0  0  0  4           0  0  0
    5.3978   -0.7359   -2.0070 C   0  0  0  0  0  4           0  0  0
    4.2471   -0.1708    0.0621 C   0  0  0  0  0  4           0  0  0
    3.3157   -1.3825   -0.0365 C   0  0  0  0  0  4           0  0  0
  1 12  1  0     0  0
  1 13  1  0     0  0
  2 14  1  0     0  0
  3 15  1  0     0  0
  3 31  1  0     0  0
  4 16  1  0     0  0
  4 34  1  0     0  0
  5 30  2  0     0  0
  6 32  1  0     0  0
  6 33  1  0     0  0
  7 17  1  0     0  0
  7 18  2  0     0  0
  8 17  2  0     0  0
  8 19  1  0     0  0
  9 12  1  0     0  0
  9 18  1  0     0  0
 10 20  1  0     0  0
 10 30  1  0     0  0
 11 35  1  0     0  0
 11 36  1  0     0  0
 11 37  1  0     0  0
 12 23  2  0     0  0
 13 22  2  0     0  0
 14 24  2  0     0  0
 14 25  1  0     0  0
 15 16  1  0     0  0
 15 26  2  0     0  0
 16 27  2  0     0  0
 18 21  1  0     0  0
 19 21  2  0     0  0
 19 26  1  0     0  0
 20 28  2  0     0  0
 20 29  1  0     0  0
 21 27  1  0     0  0
 22 23  1  0     0  0
 22 30  1  0     0  0
 24 28  1  0     0  0
 25 29  2  0     0  0
 31 38  1  0     0  0
 32 35  1  0     0  0
 33 36  1  0     0  0
 37 38  1  0     0  0
M  END
> <standard_type>
pIC50

> <# Confs.>
25

> <canonical_smiles>
COC1=CC2=C(C=C1OCCCN3CCOCC3)N=CN=C2NC4=CC(C(NC5=CC=C(F)C=C5)=O)=CS4

> <standard_relation>
=

> <Publication_ID>
nan

> <predicted_activity_value>
7.309803919971486

> <actual_activity_value>
7.318758762624412

> <Compound>
31

> <standard_units>
nM

> hash
17356734584795054981

$$$$
31_
XXILIB    08252103423D 0   0.00000     0.00000

 38 42  0     1  0            999 V2000
   -7.2827    0.4676    2.3037 S   0  0  0  0  0  2           0  0  0
  -12.0161    4.1892   -6.2092 F   0  0  0  0  0  1           0  0  0
    1.3665   -0.0000   -0.0000 O   0  0  0  0  0  2           0  0  0
   -0.0434   -0.0157    2.3502 O   0  0  0  0  0  2           0  0  0
  -10.1369    3.1184   -0.0186 O   0  0  0  0  0  2           0  0  0
    4.6694   -4.6994   -3.5190 O   0  0  0  0  0  2           0  0  0
   -4.7535    0.1311   -1.6038 N   0  0  0  0  0  3           0  0  0
   -2.5630    0.1450   -2.5763 N   0  0  0  0  0  3           0  0  0
   -5.0644    0.0745    0.7628 N   0  0  0  0  0  3           0  0  0
   -9.1698    2.1886   -1.9060 N   0  0  0  0  0  3           0  0  0
    3.9139   -3.2664   -1.1676 N   0  0  2  0  0  3           0  0  0
   -6.3184    0.5736    0.8847 C   0  0  0  0  0  4           0  0  0
   -8.5839    1.2958    1.5745 C   0  0  0  0  0  4           0  0  0
  -11.3349    3.7099   -5.1595 C   0  0  0  0  0  4           0  0  0
    0.0000    0.0000    0.0000 C   0  0  0  0  0  4           0  0  0
   -0.7454   -0.0000    1.1787 C   0  0  0  0  0  4           0  0  0
   -3.9020    0.1515   -2.6379 C   0  0  0  0  0  4           0  0  0
   -4.2075    0.1184   -0.3620 C   0  0  0  0  0  4           0  0  0
   -2.0197    0.1040   -1.3533 C   0  0  0  0  0  4           0  0  0
   -9.9182    2.7173   -2.9772 C   0  0  0  0  0  4           0  0  0
   -2.8001    0.0834   -0.1795 C   0  0  0  0  0  4           0  0  0
   -8.3250    1.6693    0.2706 C   0  0  0  0  0  4           0  0  0
   -7.0093    1.2411   -0.1129 C   0  0  0  0  0  4           0  0  0
  -11.6959    4.0984   -3.8735 C   0  0  0  0  0  4           0  0  0
  -10.2781    2.8309   -5.3722 C   0  0  0  0  0  4           0  0  0
   -0.6347    0.0732   -1.2426 C   0  0  0  0  0  4           0  0  0
   -2.1406    0.0295    1.0793 C   0  0  0  0  0  4           0  0  0
  -10.9867    3.6023   -2.7788 C   0  0  0  0  0  4           0  0  0
   -9.5686    2.3341   -4.2788 C   0  0  0  0  0  4           0  0  0
   -9.2929    2.3918   -0.5395 C   0  0  0  0  0  4           0  0  0
    1.9811   -1.2890    0.0000 C   0  0  0  0  0  4           0  0  0
    4.3421   -5.3985   -2.3186 C   0  0  0  0  0  4           0  0  0
    3.9231   -3.4868   -3.6173 C   0  0  0  0  0  4           0  0  0
   -0.8331   -0.0152    3.5364 C   0  0  0  0  0  4           0  0  0
    4.6557   -4.5361   -1.1004 C   0  0  0  0  0  4           0  0  0
    4.2256   -2.5757   -2.4301 C   0  0  0  0  0  4           0  0  0
    4.2279   -2.4380    0.0000 C   0  0  0  0  0  4           0  0  0
    3.4905   -1.0957    0.0000 C   0  0  0  0  0  4           0  0  0
  1 12  1  0     0  0
  1 13  1  0     0  0
  2 14  1  0     0  0
  3 15  1  0     0  0
  3 31  1  0     0  0
  4 16  1  0     0  0
  4 34  1  0     0  0
  5 30  2  0     0  0
  6 32  1  0     0  0
  6 33  1  0     0  0
  7 17  1  0     0  0
  7 18  2  0     0  0
  8 17  2  0     0  0
  8 19  1  0     0  0
  9 12  1  0     0  0
  9 18  1  0     0  0
 10 20  1  0     0  0
 10 30  1  0     0  0
 11 35  1  0     0  0
 11 36  1  0     0  0
 11 37  1  0     0  0
 12 23  2  0     0  0
 13 22  2  0     0  0
 14 24  2  0     0  0
 14 25  1  0     0  0
 15 16  1  0     0  0
 15 26  2  0     0  0
 16 27  2  0     0  0
 18 21  1  0     0  0
 19 21  2  0     0  0
 19 26  1  0     0  0
 20 28  2  0     0  0
 20 29  1  0     0  0
 21 27  1  0     0  0
 22 23  1  0     0  0
 22 30  1  0     0  0
 24 28  1  0     0  0
 25 29  2  0     0  0
 31 38  1  0     0  0
 32 35  1  0     0  0
 33 36  1  0     0  0
 37 38  1  0     0  0
M  END
> <standard_type>
pIC50

> <# Confs.>
25

> <canonical_smiles>
COC1=CC2=C(C=C1OCCCN3CCOCC3)N=CN=C2NC4=CC(C(NC5=CC=C(F)C=C5)=O)=CS4

> <standard_relation>
=

> <Publication_ID>
nan

> <predicted_activity_value>
7.309803919971486

> <actual_activity_value>
7.318758762624412

> <Compound>
31

> <standard_units>
nM

> hash
17356734584795054981

$$$$
31_
XXILIB    08252103423D 0   0.00000     0.00000

 38 42  0     1  0            999 V2000
   -7.2598   -0.4877    2.2839 S   0  0  0  0  0  2           0  0  0
  -11.8559   -4.0174   -6.3807 F   0  0  0  0  0  1           0  0  0
    1.3665   -0.0000   -0.0000 O   0  0  0  0  0  2           0  0  0
   -0.0434   -0.0157    2.3502 O   0  0  0  0  0  2           0  0  0
   -9.9903   -3.1691   -0.1516 O   0  0  0  0  0  2           0  0  0
    2.9652   -6.5370   -0.2985 O   0  0  0  0  0  2           0  0  0
   -4.7535    0.1311   -1.6038 N   0  0  0  0  0  3           0  0  0
   -2.5630    0.1450   -2.5763 N   0  0  0  0  0  3           0  0  0
   -5.0644    0.0745    0.7628 N   0  0  0  0  0  3           0  0  0
   -9.0708   -2.1118   -1.9950 N   0  0  0  0  0  3           0  0  0
    3.2789   -3.8200    0.5219 N   0  0  2  0  0  3           0  0  0
   -6.2930   -0.4885    0.8627 C   0  0  0  0  0  4           0  0  0
   -8.5165   -1.3548    1.5225 C   0  0  0  0  0  4           0  0  0
  -11.1872   -3.5640   -5.3115 C   0  0  0  0  0  4           0  0  0
    0.0000    0.0000    0.0000 C   0  0  0  0  0  4           0  0  0
   -0.7454    0.0000    1.1787 C   0  0  0  0  0  4           0  0  0
   -3.9020    0.1515   -2.6379 C   0  0  0  0  0  4           0  0  0
   -4.2075    0.1184   -0.3620 C   0  0  0  0  0  4           0  0  0
   -2.0197    0.1040   -1.3533 C   0  0  0  0  0  4           0  0  0
   -9.8008   -2.6205   -3.0884 C   0  0  0  0  0  4           0  0  0
   -2.8001    0.0834   -0.1795 C   0  0  0  0  0  4           0  0  0
   -8.2442   -1.6551    0.2025 C   0  0  0  0  0  4           0  0  0
   -6.9515   -1.1476   -0.1621 C   0  0  0  0  0  4           0  0  0
  -11.5239   -4.0301   -4.0449 C   0  0  0  0  0  4           0  0  0
  -10.1666   -2.6351   -5.4851 C   0  0  0  0  0  4           0  0  0
   -0.6347    0.0732   -1.2426 C   0  0  0  0  0  4           0  0  0
   -2.1406    0.0295    1.0793 C   0  0  0  0  0  4           0  0  0
  -10.8305   -3.5580   -2.9297 C   0  0  0  0  0  4           0  0  0
   -9.4725   -2.1626   -4.3712 C   0  0  0  0  0  4           0  0  0
   -9.1796   -2.3841   -0.6394 C   0  0  0  0  0  4           0  0  0
    1.9811   -1.1163    0.6445 C   0  0  0  0  0  4           0  0  0
    3.2518   -6.2201    1.0632 C   0  0  0  0  0  4           0  0  0
    2.1929   -5.5022   -0.9067 C   0  0  0  0  0  4           0  0  0
   -0.8331   -0.0152    3.5364 C   0  0  0  0  0  4           0  0  0
    4.0360   -4.9150    1.1501 C   0  0  0  0  0  4           0  0  0
    2.9507   -4.1774   -0.8684 C   0  0  0  0  0  4           0  0  0
    4.0425   -2.5714    0.5991 C   0  0  0  0  0  4           0  0  0
    3.3157   -1.3825   -0.0365 C   0  0  0  0  0  4           0  0  0
  1 12  1  0     0  0
  1 13  1  0     0  0
  2 14  1  0     0  0
  3 15  1  0     0  0
  3 31  1  0     0  0
  4 16  1  0     0  0
  4 34  1  0     0  0
  5 30  2  0     0  0
  6 32  1  0     0  0
  6 33  1  0     0  0
  7 17  1  0     0  0
  7 18  2  0     0  0
  8 17  2  0     0  0
  8 19  1  0     0  0
  9 12  1  0     0  0
  9 18  1  0     0  0
 10 20  1  0     0  0
 10 30  1  0     0  0
 11 35  1  0     0  0
 11 36  1  0     0  0
 11 37  1  0     0  0
 12 23  2  0     0  0
 13 22  2  0     0  0
 14 24  2  0     0  0
 14 25  1  0     0  0
 15 16  1  0     0  0
 15 26  2  0     0  0
 16 27  2  0     0  0
 18 21  1  0     0  0
 19 21  2  0     0  0
 19 26  1  0     0  0
 20 28  2  0     0  0
 20 29  1  0     0  0
 21 27  1  0     0  0
 22 23  1  0     0  0
 22 30  1  0     0  0
 24 28  1  0     0  0
 25 29  2  0     0  0
 31 38  1  0     0  0
 32 35  1  0     0  0
 33 36  1  0     0  0
 37 38  1  0     0  0
M  END
> <standard_type>
pIC50

> <# Confs.>
25

> <canonical_smiles>
COC1=CC2=C(C=C1OCCCN3CCOCC3)N=CN=C2NC4=CC(C(NC5=CC=C(F)C=C5)=O)=CS4

> <standard_relation>
=

> <Publication_ID>
nan

> <predicted_activity_value>
7.309803919971486

> <actual_activity_value>
7.318758762624412

> <Compound>
31

> <standard_units>
nM

> hash
17356734584795054981

$$$$
31_
XXILIB    08252103423D 0   0.00000     0.00000

 38 42  0     1  0            999 V2000
   -7.2827    0.4676    2.3037 S   0  0  0  0  0  2           0  0  0
  -11.0336    6.4745   -5.3452 F   0  0  0  0  0  1           0  0  0
    1.3665   -0.0000   -0.0000 O   0  0  0  0  0  2           0  0  0
   -0.0434   -0.0157    2.3502 O   0  0  0  0  0  2           0  0  0
  -10.4993    2.2876   -0.3266 O   0  0  0  0  0  2           0  0  0
    8.1720   -3.1622    0.0601 O   0  0  0  0  0  2           0  0  0
   -4.7535    0.1311   -1.6038 N   0  0  0  0  0  3           0  0  0
   -2.5630    0.1450   -2.5763 N   0  0  0  0  0  3           0  0  0
   -5.0644    0.0745    0.7628 N   0  0  0  0  0  3           0  0  0
   -8.7385    3.1820   -1.5355 N   0  0  0  0  0  3           0  0  0
    5.3341   -2.8591   -0.0309 N   0  0  2  0  0  3           0  0  0
   -6.3184    0.5736    0.8847 C   0  0  0  0  0  4           0  0  0
   -8.5839    1.2958    1.5745 C   0  0  0  0  0  4           0  0  0
  -10.4889    5.6732   -4.4194 C   0  0  0  0  0  4           0  0  0
    0.0000    0.0000    0.0000 C   0  0  0  0  0  4           0  0  0
   -0.7454   -0.0000    1.1787 C   0  0  0  0  0  4           0  0  0
   -3.9020    0.1515   -2.6379 C   0  0  0  0  0  4           0  0  0
   -4.2075    0.1184   -0.3620 C   0  0  0  0  0  4           0  0  0
   -2.0197    0.1040   -1.3533 C   0  0  0  0  0  4           0  0  0
   -9.3585    4.0102   -2.4929 C   0  0  0  0  0  4           0  0  0
   -2.8001    0.0834   -0.1795 C   0  0  0  0  0  4           0  0  0
   -8.3250    1.6693    0.2706 C   0  0  0  0  0  4           0  0  0
   -7.0093    1.2411   -0.1129 C   0  0  0  0  0  4           0  0  0
  -11.3154    4.9885   -3.5344 C   0  0  0  0  0  4           0  0  0
   -9.1059    5.5382   -4.3584 C   0  0  0  0  0  4           0  0  0
   -0.6347    0.0732   -1.2426 C   0  0  0  0  0  4           0  0  0
   -2.1406    0.0295    1.0793 C   0  0  0  0  0  4           0  0  0
  -10.7505    4.1551   -2.5680 C   0  0  0  0  0  4           0  0  0
   -8.5401    4.7052   -3.3931 C   0  0  0  0  0  4           0  0  0
   -9.2929    2.3918   -0.5395 C   0  0  0  0  0  4           0  0  0
    1.9811   -1.1163    0.6445 C   0  0  0  0  0  4           0  0  0
    7.3234   -4.3072   -0.0145 C   0  0  0  0  0  4           0  0  0
    7.5827   -2.0513   -0.6150 C   0  0  0  0  0  4           0  0  0
   -0.8331   -0.0152    3.5364 C   0  0  0  0  0  4           0  0  0
    5.9731   -4.0093    0.6291 C   0  0  0  0  0  4           0  0  0
    6.2372   -1.6969    0.0133 C   0  0  0  0  0  4           0  0  0
    4.0425   -2.5714    0.5991 C   0  0  0  0  0  4           0  0  0
    3.3157   -1.3825   -0.0365 C   0  0  0  0  0  4           0  0  0
  1 12  1  0     0  0
  1 13  1  0     0  0
  2 14  1  0     0  0
  3 15  1  0     0  0
  3 31  1  0     0  0
  4 16  1  0     0  0
  4 34  1  0     0  0
  5 30  2  0     0  0
  6 32  1  0     0  0
  6 33  1  0     0  0
  7 17  1  0     0  0
  7 18  2  0     0  0
  8 17  2  0     0  0
  8 19  1  0     0  0
  9 12  1  0     0  0
  9 18  1  0     0  0
 10 20  1  0     0  0
 10 30  1  0     0  0
 11 35  1  0     0  0
 11 36  1  0     0  0
 11 37  1  0     0  0
 12 23  2  0     0  0
 13 22  2  0     0  0
 14 24  2  0     0  0
 14 25  1  0     0  0
 15 16  1  0     0  0
 15 26  2  0     0  0
 16 27  2  0     0  0
 18 21  1  0     0  0
 19 21  2  0     0  0
 19 26  1  0     0  0
 20 28  2  0     0  0
 20 29  1  0     0  0
 21 27  1  0     0  0
 22 23  1  0     0  0
 22 30  1  0     0  0
 24 28  1  0     0  0
 25 29  2  0     0  0
 31 38  1  0     0  0
 32 35  1  0     0  0
 33 36  1  0     0  0
 37 38  1  0     0  0
M  END
> <standard_type>
pIC50

> <# Confs.>
25

> <canonical_smiles>
COC1=CC2=C(C=C1OCCCN3CCOCC3)N=CN=C2NC4=CC(C(NC5=CC=C(F)C=C5)=O)=CS4

> <standard_relation>
=

> <Publication_ID>
nan

> <predicted_activity_value>
7.309803919971486

> <actual_activity_value>
7.318758762624412

> <Compound>
31

> <standard_units>
nM

> hash
17356734584795054981

$$$$
31_
XXILIB    08252103423D 0   0.00000     0.00000

 38 42  0     1  0            999 V2000
   -7.2827    0.4676    2.3037 S   0  0  0  0  0  2           0  0  0
  -12.0161    4.1892   -6.2092 F   0  0  0  0  0  1           0  0  0
    1.3665   -0.0000    0.0000 O   0  0  0  0  0  2           0  0  0
   -0.0434   -0.0157    2.3502 O   0  0  0  0  0  2           0  0  0
  -10.1369    3.1184   -0.0186 O   0  0  0  0  0  2           0  0  0
    6.3294    1.3959   -4.2410 O   0  0  0  0  0  2           0  0  0
   -4.7535    0.1311   -1.6038 N   0  0  0  0  0  3           0  0  0
   -2.5630    0.1450   -2.5763 N   0  0  0  0  0  3           0  0  0
   -5.0644    0.0745    0.7628 N   0  0  0  0  0  3           0  0  0
   -9.1698    2.1886   -1.9060 N   0  0  0  0  0  3           0  0  0
    4.3984    1.9622   -2.2151 N   0  0  2  0  0  3           0  0  0
   -6.3184    0.5736    0.8847 C   0  0  0  0  0  4           0  0  0
   -8.5839    1.2958    1.5745 C   0  0  0  0  0  4           0  0  0
  -11.3349    3.7099   -5.1595 C   0  0  0  0  0  4           0  0  0
    0.0000    0.0000    0.0000 C   0  0  0  0  0  4           0  0  0
   -0.7454   -0.0000    1.1787 C   0  0  0  0  0  4           0  0  0
   -3.9020    0.1515   -2.6379 C   0  0  0  0  0  4           0  0  0
   -4.2075    0.1184   -0.3620 C   0  0  0  0  0  4           0  0  0
   -2.0197    0.1040   -1.3533 C   0  0  0  0  0  4           0  0  0
   -9.9182    2.7173   -2.9772 C   0  0  0  0  0  4           0  0  0
   -2.8001    0.0834   -0.1795 C   0  0  0  0  0  4           0  0  0
   -8.3250    1.6693    0.2706 C   0  0  0  0  0  4           0  0  0
   -7.0093    1.2411   -0.1129 C   0  0  0  0  0  4           0  0  0
  -11.6959    4.0984   -3.8735 C   0  0  0  0  0  4           0  0  0
  -10.2781    2.8309   -5.3722 C   0  0  0  0  0  4           0  0  0
   -0.6347    0.0732   -1.2426 C   0  0  0  0  0  4           0  0  0
   -2.1406    0.0295    1.0793 C   0  0  0  0  0  4           0  0  0
  -10.9867    3.6023   -2.7788 C   0  0  0  0  0  4           0  0  0
   -9.5686    2.3341   -4.2788 C   0  0  0  0  0  4           0  0  0
   -9.2929    2.3918   -0.5395 C   0  0  0  0  0  4           0  0  0
    1.9811    1.1163    0.6445 C   0  0  0  0  0  4           0  0  0
    5.4605    2.5214   -4.3630 C   0  0  0  0  0  4           0  0  0
    6.6170    1.1255   -2.8694 C   0  0  0  0  0  4           0  0  0
   -0.8331   -0.0152    3.5364 C   0  0  0  0  0  4           0  0  0
    4.1465    2.2583   -3.6348 C   0  0  0  0  0  4           0  0  0
    5.3307    0.8280   -2.1025 C   0  0  0  0  0  4           0  0  0
    3.1331    1.6996   -1.5237 C   0  0  0  0  0  4           0  0  0
    3.3157    1.3825   -0.0365 C   0  0  0  0  0  4           0  0  0
  1 12  1  0     0  0
  1 13  1  0     0  0
  2 14  1  0     0  0
  3 15  1  0     0  0
  3 31  1  0     0  0
  4 16  1  0     0  0
  4 34  1  0     0  0
  5 30  2  0     0  0
  6 32  1  0     0  0
  6 33  1  0     0  0
  7 17  1  0     0  0
  7 18  2  0     0  0
  8 17  2  0     0  0
  8 19  1  0     0  0
  9 12  1  0     0  0
  9 18  1  0     0  0
 10 20  1  0     0  0
 10 30  1  0     0  0
 11 35  1  0     0  0
 11 36  1  0     0  0
 11 37  1  0     0  0
 12 23  2  0     0  0
 13 22  2  0     0  0
 14 24  2  0     0  0
 14 25  1  0     0  0
 15 16  1  0     0  0
 15 26  2  0     0  0
 16 27  2  0     0  0
 18 21  1  0     0  0
 19 21  2  0     0  0
 19 26  1  0     0  0
 20 28  2  0     0  0
 20 29  1  0     0  0
 21 27  1  0     0  0
 22 23  1  0     0  0
 22 30  1  0     0  0
 24 28  1  0     0  0
 25 29  2  0     0  0
 31 38  1  0     0  0
 32 35  1  0     0  0
 33 36  1  0     0  0
 37 38  1  0     0  0
M  END
> <standard_type>
pIC50

> <# Confs.>
25

> <canonical_smiles>
COC1=CC2=C(C=C1OCCCN3CCOCC3)N=CN=C2NC4=CC(C(NC5=CC=C(F)C=C5)=O)=CS4

> <standard_relation>
=

> <Publication_ID>
nan

> <predicted_activity_value>
7.309803919971486

> <actual_activity_value>
7.318758762624412

> <Compound>
31

> <standard_units>
nM

> hash
17356734584795054981

$$$$
31_
XXILIB    08252103423D 0   0.00000     0.00000

 38 42  0     1  0            999 V2000
   -7.2827    0.4676    2.3037 S   0  0  0  0  0  2           0  0  0
  -11.0336    6.4745   -5.3452 F   0  0  0  0  0  1           0  0  0
    1.3665   -0.0000    0.0000 O   0  0  0  0  0  2           0  0  0
   -0.0434   -0.0157    2.3502 O   0  0  0  0  0  2           0  0  0
  -10.4993    2.2876   -0.3266 O   0  0  0  0  0  2           0  0  0
    6.1416    2.1779    4.2228 O   0  0  0  0  0  2           0  0  0
   -4.7535    0.1311   -1.6038 N   0  0  0  0  0  3           0  0  0
   -2.5630    0.1450   -2.5763 N   0  0  0  0  0  3           0  0  0
   -5.0644    0.0745    0.7628 N   0  0  0  0  0  3           0  0  0
   -8.7385    3.1820   -1.5355 N   0  0  0  0  0  3           0  0  0
    4.3328    2.3737    2.0220 N   0  0  2  0  0  3           0  0  0
   -6.3184    0.5736    0.8847 C   0  0  0  0  0  4           0  0  0
   -8.5839    1.2958    1.5745 C   0  0  0  0  0  4           0  0  0
  -10.4889    5.6732   -4.4194 C   0  0  0  0  0  4           0  0  0
    0.0000    0.0000    0.0000 C   0  0  0  0  0  4           0  0  0
   -0.7454   -0.0000    1.1787 C   0  0  0  0  0  4           0  0  0
   -3.9020    0.1515   -2.6379 C   0  0  0  0  0  4           0  0  0
   -4.2075    0.1184   -0.3620 C   0  0  0  0  0  4           0  0  0
   -2.0197    0.1040   -1.3533 C   0  0  0  0  0  4           0  0  0
   -9.3585    4.0102   -2.4929 C   0  0  0  0  0  4           0  0  0
   -2.8001    0.0834   -0.1795 C   0  0  0  0  0  4           0  0  0
   -8.3250    1.6693    0.2706 C   0  0  0  0  0  4           0  0  0
   -7.0093    1.2411   -0.1129 C   0  0  0  0  0  4           0  0  0
  -11.3154    4.9885   -3.5344 C   0  0  0  0  0  4           0  0  0
   -9.1059    5.5382   -4.3584 C   0  0  0  0  0  4           0  0  0
   -0.6347    0.0732   -1.2426 C   0  0  0  0  0  4           0  0  0
   -2.1406    0.0295    1.0793 C   0  0  0  0  0  4           0  0  0
  -10.7505    4.1551   -2.5680 C   0  0  0  0  0  4           0  0  0
   -8.5401    4.7052   -3.3931 C   0  0  0  0  0  4           0  0  0
   -9.2929    2.3918   -0.5395 C   0  0  0  0  0  4           0  0  0
    1.9811    1.1163    0.6445 C   0  0  0  0  0  4           0  0  0
    5.3447    3.3480    4.0422 C   0  0  0  0  0  4           0  0  0
    5.4581    1.0213    3.7410 C   0  0  0  0  0  4           0  0  0
   -0.8331   -0.0152    3.5364 C   0  0  0  0  0  4           0  0  0
    5.0294    3.5518    2.5640 C   0  0  0  0  0  4           0  0  0
    5.1443    1.1671    2.2539 C   0  0  0  0  0  4           0  0  0
    4.0425    2.5714    0.5991 C   0  0  0  0  0  4           0  0  0
    3.3157    1.3825   -0.0365 C   0  0  0  0  0  4           0  0  0
  1 12  1  0     0  0
  1 13  1  0     0  0
  2 14  1  0     0  0
  3 15  1  0     0  0
  3 31  1  0     0  0
  4 16  1  0     0  0
  4 34  1  0     0  0
  5 30  2  0     0  0
  6 32  1  0     0  0
  6 33  1  0     0  0
  7 17  1  0     0  0
  7 18  2  0     0  0
  8 17  2  0     0  0
  8 19  1  0     0  0
  9 12  1  0     0  0
  9 18  1  0     0  0
 10 20  1  0     0  0
 10 30  1  0     0  0
 11 35  1  0     0  0
 11 36  1  0     0  0
 11 37  1  0     0  0
 12 23  2  0     0  0
 13 22  2  0     0  0
 14 24  2  0     0  0
 14 25  1  0     0  0
 15 16  1  0     0  0
 15 26  2  0     0  0
 16 27  2  0     0  0
 18 21  1  0     0  0
 19 21  2  0     0  0
 19 26  1  0     0  0
 20 28  2  0     0  0
 20 29  1  0     0  0
 21 27  1  0     0  0
 22 23  1  0     0  0
 22 30  1  0     0  0
 24 28  1  0     0  0
 25 29  2  0     0  0
 31 38  1  0     0  0
 32 35  1  0     0  0
 33 36  1  0     0  0
 37 38  1  0     0  0
M  END
> <standard_type>
pIC50

> <# Confs.>
25

> <canonical_smiles>
COC1=CC2=C(C=C1OCCCN3CCOCC3)N=CN=C2NC4=CC(C(NC5=CC=C(F)C=C5)=O)=CS4

> <standard_relation>
=

> <Publication_ID>
nan

> <predicted_activity_value>
7.309803919971486

> <actual_activity_value>
7.318758762624412

> <Compound>
31

> <standard_units>
nM

> hash
17356734584795054981

$$$$
31_
XXILIB    08252103423D 0   0.00000     0.00000

 38 42  0     1  0            999 V2000
   -7.2827    0.4676    2.3037 S   0  0  0  0  0  2           0  0  0
  -12.0161    4.1892   -6.2092 F   0  0  0  0  0  1           0  0  0
    1.3665   -0.0000    0.0000 O   0  0  0  0  0  2           0  0  0
   -0.0434   -0.0157    2.3502 O   0  0  0  0  0  2           0  0  0
  -10.1369    3.1184   -0.0186 O   0  0  0  0  0  2           0  0  0
    7.1325    4.5887   -1.4195 O   0  0  0  0  0  2           0  0  0
   -4.7535    0.1311   -1.6038 N   0  0  0  0  0  3           0  0  0
   -2.5630    0.1450   -2.5763 N   0  0  0  0  0  3           0  0  0
   -5.0644    0.0745    0.7628 N   0  0  0  0  0  3           0  0  0
   -9.1698    2.1886   -1.9060 N   0  0  0  0  0  3           0  0  0
    5.3341    2.8591   -0.0309 N   0  0  2  0  0  3           0  0  0
   -6.3184    0.5736    0.8847 C   0  0  0  0  0  4           0  0  0
   -8.5839    1.2958    1.5745 C   0  0  0  0  0  4           0  0  0
  -11.3349    3.7099   -5.1595 C   0  0  0  0  0  4           0  0  0
    0.0000    0.0000    0.0000 C   0  0  0  0  0  4           0  0  0
   -0.7454   -0.0000    1.1787 C   0  0  0  0  0  4           0  0  0
   -3.9020    0.1515   -2.6379 C   0  0  0  0  0  4           0  0  0
   -4.2075    0.1184   -0.3620 C   0  0  0  0  0  4           0  0  0
   -2.0197    0.1040   -1.3533 C   0  0  0  0  0  4           0  0  0
   -9.9182    2.7173   -2.9772 C   0  0  0  0  0  4           0  0  0
   -2.8001    0.0834   -0.1795 C   0  0  0  0  0  4           0  0  0
   -8.3250    1.6693    0.2706 C   0  0  0  0  0  4           0  0  0
   -7.0093    1.2411   -0.1129 C   0  0  0  0  0  4           0  0  0
  -11.6959    4.0984   -3.8735 C   0  0  0  0  0  4           0  0  0
  -10.2781    2.8309   -5.3722 C   0  0  0  0  0  4           0  0  0
   -0.6347    0.0732   -1.2426 C   0  0  0  0  0  4           0  0  0
   -2.1406    0.0295    1.0793 C   0  0  0  0  0  4           0  0  0
  -10.9867    3.6023   -2.7788 C   0  0  0  0  0  4           0  0  0
   -9.5686    2.3341   -4.2788 C   0  0  0  0  0  4           0  0  0
   -9.2929    2.3918   -0.5395 C   0  0  0  0  0  4           0  0  0
    1.9811    1.1163    0.6445 C   0  0  0  0  0  4           0  0  0
    7.3130    4.3214   -0.0293 C   0  0  0  0  0  4           0  0  0
    6.5537    3.4634   -2.0797 C   0  0  0  0  0  4           0  0  0
   -0.8331   -0.0152    3.5364 C   0  0  0  0  0  4           0  0  0
    5.9731    4.0093    0.6291 C   0  0  0  0  0  4           0  0  0
    5.1938    3.1287   -1.4718 C   0  0  0  0  0  4           0  0  0
    4.0425    2.5714    0.5991 C   0  0  0  0  0  4           0  0  0
    3.3157    1.3825   -0.0365 C   0  0  0  0  0  4           0  0  0
  1 12  1  0     0  0
  1 13  1  0     0  0
  2 14  1  0     0  0
  3 15  1  0     0  0
  3 31  1  0     0  0
  4 16  1  0     0  0
  4 34  1  0     0  0
  5 30  2  0     0  0
  6 32  1  0     0  0
  6 33  1  0     0  0
  7 17  1  0     0  0
  7 18  2  0     0  0
  8 17  2  0     0  0
  8 19  1  0     0  0
  9 12  1  0     0  0
  9 18  1  0     0  0
 10 20  1  0     0  0
 10 30  1  0     0  0
 11 35  1  0     0  0
 11 36  1  0     0  0
 11 37  1  0     0  0
 12 23  2  0     0  0
 13 22  2  0     0  0
 14 24  2  0     0  0
 14 25  1  0     0  0
 15 16  1  0     0  0
 15 26  2  0     0  0
 16 27  2  0     0  0
 18 21  1  0     0  0
 19 21  2  0     0  0
 19 26  1  0     0  0
 20 28  2  0     0  0
 20 29  1  0     0  0
 21 27  1  0     0  0
 22 23  1  0     0  0
 22 30  1  0     0  0
 24 28  1  0     0  0
 25 29  2  0     0  0
 31 38  1  0     0  0
 32 35  1  0     0  0
 33 36  1  0     0  0
 37 38  1  0     0  0
M  END
> <standard_type>
pIC50

> <# Confs.>
25

> <canonical_smiles>
COC1=CC2=C(C=C1OCCCN3CCOCC3)N=CN=C2NC4=CC(C(NC5=CC=C(F)C=C5)=O)=CS4

> <standard_relation>
=

> <Publication_ID>
nan

> <predicted_activity_value>
7.309803919971486

> <actual_activity_value>
7.318758762624412

> <Compound>
31

> <standard_units>
nM

> hash
17356734584795054981

$$$$
31_
XXILIB    08252103423D 0   0.00000     0.00000

 38 42  0     1  0            999 V2000
   -7.2827    0.4676    2.3037 S   0  0  0  0  0  2           0  0  0
  -12.0161    4.1892   -6.2092 F   0  0  0  0  0  1           0  0  0
    1.3665   -0.0000    0.0000 O   0  0  0  0  0  2           0  0  0
   -0.0434   -0.0157    2.3502 O   0  0  0  0  0  2           0  0  0
  -10.1369    3.1184   -0.0186 O   0  0  0  0  0  2           0  0  0
    4.6694    4.6994    3.5190 O   0  0  0  0  0  2           0  0  0
   -4.7535    0.1311   -1.6038 N   0  0  0  0  0  3           0  0  0
   -2.5630    0.1450   -2.5763 N   0  0  0  0  0  3           0  0  0
   -5.0644    0.0745    0.7628 N   0  0  0  0  0  3           0  0  0
   -9.1698    2.1886   -1.9060 N   0  0  0  0  0  3           0  0  0
    3.9139    3.2664    1.1676 N   0  0  2  0  0  3           0  0  0
   -6.3184    0.5736    0.8847 C   0  0  0  0  0  4           0  0  0
   -8.5839    1.2958    1.5745 C   0  0  0  0  0  4           0  0  0
  -11.3349    3.7099   -5.1595 C   0  0  0  0  0  4           0  0  0
    0.0000    0.0000    0.0000 C   0  0  0  0  0  4           0  0  0
   -0.7454   -0.0000    1.1787 C   0  0  0  0  0  4           0  0  0
   -3.9020    0.1515   -2.6379 C   0  0  0  0  0  4           0  0  0
   -4.2075    0.1184   -0.3620 C   0  0  0  0  0  4           0  0  0
   -2.0197    0.1040   -1.3533 C   0  0  0  0  0  4           0  0  0
   -9.9182    2.7173   -2.9772 C   0  0  0  0  0  4           0  0  0
   -2.8001    0.0834   -0.1795 C   0  0  0  0  0  4           0  0  0
   -8.3250    1.6693    0.2706 C   0  0  0  0  0  4           0  0  0
   -7.0093    1.2411   -0.1129 C   0  0  0  0  0  4           0  0  0
  -11.6959    4.0984   -3.8735 C   0  0  0  0  0  4           0  0  0
  -10.2781    2.8309   -5.3722 C   0  0  0  0  0  4           0  0  0
   -0.6347    0.0732   -1.2426 C   0  0  0  0  0  4           0  0  0
   -2.1406    0.0295    1.0793 C   0  0  0  0  0  4           0  0  0
  -10.9867    3.6023   -2.7788 C   0  0  0  0  0  4           0  0  0
   -9.5686    2.3341   -4.2788 C   0  0  0  0  0  4           0  0  0
   -9.2929    2.3918   -0.5395 C   0  0  0  0  0  4           0  0  0
    1.9811    1.2890    0.0000 C   0  0  0  0  0  4           0  0  0
    4.3421    5.3985    2.3186 C   0  0  0  0  0  4           0  0  0
    3.9231    3.4868    3.6173 C   0  0  0  0  0  4           0  0  0
   -0.8331   -0.0152    3.5364 C   0  0  0  0  0  4           0  0  0
    4.6557    4.5361    1.1004 C   0  0  0  0  0  4           0  0  0
    4.2256    2.5757    2.4301 C   0  0  0  0  0  4           0  0  0
    4.2279    2.4380    0.0000 C   0  0  0  0  0  4           0  0  0
    3.4905    1.0957   -0.0000 C   0  0  0  0  0  4           0  0  0
  1 12  1  0     0  0
  1 13  1  0     0  0
  2 14  1  0     0  0
  3 15  1  0     0  0
  3 31  1  0     0  0
  4 16  1  0     0  0
  4 34  1  0     0  0
  5 30  2  0     0  0
  6 32  1  0     0  0
  6 33  1  0     0  0
  7 17  1  0     0  0
  7 18  2  0     0  0
  8 17  2  0     0  0
  8 19  1  0     0  0
  9 12  1  0     0  0
  9 18  1  0     0  0
 10 20  1  0     0  0
 10 30  1  0     0  0
 11 35  1  0     0  0
 11 36  1  0     0  0
 11 37  1  0     0  0
 12 23  2  0     0  0
 13 22  2  0     0  0
 14 24  2  0     0  0
 14 25  1  0     0  0
 15 16  1  0     0  0
 15 26  2  0     0  0
 16 27  2  0     0  0
 18 21  1  0     0  0
 19 21  2  0     0  0
 19 26  1  0     0  0
 20 28  2  0     0  0
 20 29  1  0     0  0
 21 27  1  0     0  0
 22 23  1  0     0  0
 22 30  1  0     0  0
 24 28  1  0     0  0
 25 29  2  0     0  0
 31 38  1  0     0  0
 32 35  1  0     0  0
 33 36  1  0     0  0
 37 38  1  0     0  0
M  END
> <standard_type>
pIC50

> <# Confs.>
25

> <canonical_smiles>
COC1=CC2=C(C=C1OCCCN3CCOCC3)N=CN=C2NC4=CC(C(NC5=CC=C(F)C=C5)=O)=CS4

> <standard_relation>
=

> <Publication_ID>
nan

> <predicted_activity_value>
7.309803919971486

> <actual_activity_value>
7.318758762624412

> <Compound>
31

> <standard_units>
nM

> hash
17356734584795054981

$$$$
31_
XXILIB    08252103423D 0   0.00000     0.00000

 38 42  0     1  0            999 V2000
   -7.2827    0.4676    2.3037 S   0  0  0  0  0  2           0  0  0
  -12.0161    4.1892   -6.2092 F   0  0  0  0  0  1           0  0  0
    1.3665   -0.0000    0.0000 O   0  0  0  0  0  2           0  0  0
   -0.0434   -0.0157    2.3502 O   0  0  0  0  0  2           0  0  0
  -10.1369    3.1184   -0.0186 O   0  0  0  0  0  2           0  0  0
    7.7128    1.5712    1.3491 O   0  0  0  0  0  2           0  0  0
   -4.7535    0.1311   -1.6038 N   0  0  0  0  0  3           0  0  0
   -2.5630    0.1450   -2.5763 N   0  0  0  0  0  3           0  0  0
   -5.0644    0.0745    0.7628 N   0  0  0  0  0  3           0  0  0
   -9.1698    2.1886   -1.9060 N   0  0  0  0  0  3           0  0  0
    5.4068   -0.1110    1.2699 N   0  0  2  0  0  3           0  0  0
   -6.3184    0.5736    0.8847 C   0  0  0  0  0  4           0  0  0
   -8.5839    1.2958    1.5745 C   0  0  0  0  0  4           0  0  0
  -11.3349    3.7099   -5.1595 C   0  0  0  0  0  4           0  0  0
    0.0000    0.0000    0.0000 C   0  0  0  0  0  4           0  0  0
   -0.7454   -0.0000    1.1787 C   0  0  0  0  0  4           0  0  0
   -3.9020    0.1515   -2.6379 C   0  0  0  0  0  4           0  0  0
   -4.2075    0.1184   -0.3620 C   0  0  0  0  0  4           0  0  0
   -2.0197    0.1040   -1.3533 C   0  0  0  0  0  4           0  0  0
   -9.9182    2.7173   -2.9772 C   0  0  0  0  0  4           0  0  0
   -2.8001    0.0834   -0.1795 C   0  0  0  0  0  4           0  0  0
   -8.3250    1.6693    0.2706 C   0  0  0  0  0  4           0  0  0
   -7.0093    1.2411   -0.1129 C   0  0  0  0  0  4           0  0  0
  -11.6959    4.0984   -3.8735 C   0  0  0  0  0  4           0  0  0
  -10.2781    2.8309   -5.3722 C   0  0  0  0  0  4           0  0  0
   -0.6347    0.0732   -1.2426 C   0  0  0  0  0  4           0  0  0
   -2.1406    0.0295    1.0793 C   0  0  0  0  0  4           0  0  0
  -10.9867    3.6023   -2.7788 C   0  0  0  0  0  4           0  0  0
   -9.5686    2.3341   -4.2788 C   0  0  0  0  0  4           0  0  0
   -9.2929    2.3918   -0.5395 C   0  0  0  0  0  4           0  0  0
    1.9811   -1.2890    0.0000 C   0  0  0  0  0  4           0  0  0
    7.2880    0.8692    2.5168 C   0  0  0  0  0  4           0  0  0
    7.3954    0.8311    0.1707 C   0  0  0  0  0  4           0  0  0
   -0.8331   -0.0152    3.5364 C   0  0  0  0  0  4           0  0  0
    5.7806    0.6407    2.4791 C   0  0  0  0  0  4           0  0  0
    5.8892    0.6005    0.0743 C   0  0  0  0  0  4           0  0  0
    3.9563   -0.3176    1.2342 C   0  0  0  0  0  4           0  0  0
    3.4905   -1.0957    0.0000 C   0  0  0  0  0  4           0  0  0
  1 12  1  0     0  0
  1 13  1  0     0  0
  2 14  1  0     0  0
  3 15  1  0     0  0
  3 31  1  0     0  0
  4 16  1  0     0  0
  4 34  1  0     0  0
  5 30  2  0     0  0
  6 32  1  0     0  0
  6 33  1  0     0  0
  7 17  1  0     0  0
  7 18  2  0     0  0
  8 17  2  0     0  0
  8 19  1  0     0  0
  9 12  1  0     0  0
  9 18  1  0     0  0
 10 20  1  0     0  0
 10 30  1  0     0  0
 11 35  1  0     0  0
 11 36  1  0     0  0
 11 37  1  0     0  0
 12 23  2  0     0  0
 13 22  2  0     0  0
 14 24  2  0     0  0
 14 25  1  0     0  0
 15 16  1  0     0  0
 15 26  2  0     0  0
 16 27  2  0     0  0
 18 21  1  0     0  0
 19 21  2  0     0  0
 19 26  1  0     0  0
 20 28  2  0     0  0
 20 29  1  0     0  0
 21 27  1  0     0  0
 22 23  1  0     0  0
 22 30  1  0     0  0
 24 28  1  0     0  0
 25 29  2  0     0  0
 31 38  1  0     0  0
 32 35  1  0     0  0
 33 36  1  0     0  0
 37 38  1  0     0  0
M  END
> <standard_type>
pIC50

> <# Confs.>
25

> <canonical_smiles>
COC1=CC2=C(C=C1OCCCN3CCOCC3)N=CN=C2NC4=CC(C(NC5=CC=C(F)C=C5)=O)=CS4

> <standard_relation>
=

> <Publication_ID>
nan

> <predicted_activity_value>
7.309803919971486

> <actual_activity_value>
7.318758762624412

> <Compound>
31

> <standard_units>
nM

> hash
17356734584795054981

$$$$
31_
XXILIB    08252103423D 0   0.00000     0.00000

 38 42  0     1  0            999 V2000
   -7.2827    0.4676    2.3037 S   0  0  0  0  0  2           0  0  0
  -12.0161    4.1892   -6.2092 F   0  0  0  0  0  1           0  0  0
    1.3665   -0.0000   -0.0000 O   0  0  0  0  0  2           0  0  0
   -0.0434   -0.0157    2.3502 O   0  0  0  0  0  2           0  0  0
  -10.1369    3.1184   -0.0186 O   0  0  0  0  0  2           0  0  0
    6.1440   -2.1423    4.2173 O   0  0  0  0  0  2           0  0  0
   -4.7535    0.1311   -1.6038 N   0  0  0  0  0  3           0  0  0
   -2.5630    0.1450   -2.5763 N   0  0  0  0  0  3           0  0  0
   -5.0644    0.0745    0.7628 N   0  0  0  0  0  3           0  0  0
   -9.1698    2.1886   -1.9060 N   0  0  0  0  0  3           0  0  0
    4.3328   -2.3737    2.0220 N   0  0  2  0  0  3           0  0  0
   -6.3184    0.5736    0.8847 C   0  0  0  0  0  4           0  0  0
   -8.5839    1.2958    1.5745 C   0  0  0  0  0  4           0  0  0
  -11.3349    3.7099   -5.1595 C   0  0  0  0  0  4           0  0  0
    0.0000    0.0000    0.0000 C   0  0  0  0  0  4           0  0  0
   -0.7454   -0.0000    1.1787 C   0  0  0  0  0  4           0  0  0
   -3.9020    0.1515   -2.6379 C   0  0  0  0  0  4           0  0  0
   -4.2075    0.1184   -0.3620 C   0  0  0  0  0  4           0  0  0
   -2.0197    0.1040   -1.3533 C   0  0  0  0  0  4           0  0  0
   -9.9182    2.7173   -2.9772 C   0  0  0  0  0  4           0  0  0
   -2.8001    0.0834   -0.1795 C   0  0  0  0  0  4           0  0  0
   -8.3250    1.6693    0.2706 C   0  0  0  0  0  4           0  0  0
   -7.0093    1.2411   -0.1129 C   0  0  0  0  0  4           0  0  0
  -11.6959    4.0984   -3.8735 C   0  0  0  0  0  4           0  0  0
  -10.2781    2.8309   -5.3722 C   0  0  0  0  0  4           0  0  0
   -0.6347    0.0732   -1.2426 C   0  0  0  0  0  4           0  0  0
   -2.1406    0.0295    1.0793 C   0  0  0  0  0  4           0  0  0
  -10.9867    3.6023   -2.7788 C   0  0  0  0  0  4           0  0  0
   -9.5686    2.3341   -4.2788 C   0  0  0  0  0  4           0  0  0
   -9.2929    2.3918   -0.5395 C   0  0  0  0  0  4           0  0  0
    1.9811   -1.1163    0.6445 C   0  0  0  0  0  4           0  0  0
    5.5039   -0.9848    3.6814 C   0  0  0  0  0  4           0  0  0
    5.3053   -3.2897    4.0873 C   0  0  0  0  0  4           0  0  0
   -0.8331   -0.0152    3.5364 C   0  0  0  0  0  4           0  0  0
    5.1885   -1.1897    2.2034 C   0  0  0  0  0  4           0  0  0
    4.9836   -3.5525    2.6181 C   0  0  0  0  0  4           0  0  0
    4.0425   -2.5714    0.5991 C   0  0  0  0  0  4           0  0  0
    3.3157   -1.3825   -0.0365 C   0  0  0  0  0  4           0  0  0
  1 12  1  0     0  0
  1 13  1  0     0  0
  2 14  1  0     0  0
  3 15  1  0     0  0
  3 31  1  0     0  0
  4 16  1  0     0  0
  4 34  1  0     0  0
  5 30  2  0     0  0
  6 32  1  0     0  0
  6 33  1  0     0  0
  7 17  1  0     0  0
  7 18  2  0     0  0
  8 17  2  0     0  0
  8 19  1  0     0  0
  9 12  1  0     0  0
  9 18  1  0     0  0
 10 20  1  0     0  0
 10 30  1  0     0  0
 11 35  1  0     0  0
 11 36  1  0     0  0
 11 37  1  0     0  0
 12 23  2  0     0  0
 13 22  2  0     0  0
 14 24  2  0     0  0
 14 25  1  0     0  0
 15 16  1  0     0  0
 15 26  2  0     0  0
 16 27  2  0     0  0
 18 21  1  0     0  0
 19 21  2  0     0  0
 19 26  1  0     0  0
 20 28  2  0     0  0
 20 29  1  0     0  0
 21 27  1  0     0  0
 22 23  1  0     0  0
 22 30  1  0     0  0
 24 28  1  0     0  0
 25 29  2  0     0  0
 31 38  1  0     0  0
 32 35  1  0     0  0
 33 36  1  0     0  0
 37 38  1  0     0  0
M  END
> <standard_type>
pIC50

> <# Confs.>
25

> <canonical_smiles>
COC1=CC2=C(C=C1OCCCN3CCOCC3)N=CN=C2NC4=CC(C(NC5=CC=C(F)C=C5)=O)=CS4

> <standard_relation>
=

> <Publication_ID>
nan

> <predicted_activity_value>
7.309803919971486

> <actual_activity_value>
7.318758762624412

> <Compound>
31

> <standard_units>
nM

> hash
17356734584795054981

$$$$
31_
XXILIB    08252103423D 0   0.00000     0.00000

 38 42  0     1  0            999 V2000
   -7.2827    0.4676    2.3037 S   0  0  0  0  0  2           0  0  0
  -11.0336    6.4745   -5.3452 F   0  0  0  0  0  1           0  0  0
    1.3665   -0.0000   -0.0000 O   0  0  0  0  0  2           0  0  0
   -0.0434   -0.0157    2.3502 O   0  0  0  0  0  2           0  0  0
  -10.4993    2.2876   -0.3266 O   0  0  0  0  0  2           0  0  0
    4.6694   -4.6994   -3.5190 O   0  0  0  0  0  2           0  0  0
   -4.7535    0.1311   -1.6038 N   0  0  0  0  0  3           0  0  0
   -2.5630    0.1450   -2.5763 N   0  0  0  0  0  3           0  0  0
   -5.0644    0.0745    0.7628 N   0  0  0  0  0  3           0  0  0
   -8.7385    3.1820   -1.5355 N   0  0  0  0  0  3           0  0  0
    3.9139   -3.2664   -1.1676 N   0  0  2  0  0  3           0  0  0
   -6.3184    0.5736    0.8847 C   0  0  0  0  0  4           0  0  0
   -8.5839    1.2958    1.5745 C   0  0  0  0  0  4           0  0  0
  -10.4889    5.6732   -4.4194 C   0  0  0  0  0  4           0  0  0
    0.0000    0.0000    0.0000 C   0  0  0  0  0  4           0  0  0
   -0.7454   -0.0000    1.1787 C   0  0  0  0  0  4           0  0  0
   -3.9020    0.1515   -2.6379 C   0  0  0  0  0  4           0  0  0
   -4.2075    0.1184   -0.3620 C   0  0  0  0  0  4           0  0  0
   -2.0197    0.1040   -1.3533 C   0  0  0  0  0  4           0  0  0
   -9.3585    4.0102   -2.4929 C   0  0  0  0  0  4           0  0  0
   -2.8001    0.0834   -0.1795 C   0  0  0  0  0  4           0  0  0
   -8.3250    1.6693    0.2706 C   0  0  0  0  0  4           0  0  0
   -7.0093    1.2411   -0.1129 C   0  0  0  0  0  4           0  0  0
  -11.3154    4.9885   -3.5344 C   0  0  0  0  0  4           0  0  0
   -9.1059    5.5382   -4.3584 C   0  0  0  0  0  4           0  0  0
   -0.6347    0.0732   -1.2426 C   0  0  0  0  0  4           0  0  0
   -2.1406    0.0295    1.0793 C   0  0  0  0  0  4           0  0  0
  -10.7505    4.1551   -2.5680 C   0  0  0  0  0  4           0  0  0
   -8.5401    4.7052   -3.3931 C   0  0  0  0  0  4           0  0  0
   -9.2929    2.3918   -0.5395 C   0  0  0  0  0  4           0  0  0
    1.9811   -1.2890    0.0000 C   0  0  0  0  0  4           0  0  0
    4.3421   -5.3985   -2.3186 C   0  0  0  0  0  4           0  0  0
    3.9231   -3.4868   -3.6173 C   0  0  0  0  0  4           0  0  0
   -0.8331   -0.0152    3.5364 C   0  0  0  0  0  4           0  0  0
    4.6557   -4.5361   -1.1004 C   0  0  0  0  0  4           0  0  0
    4.2256   -2.5757   -2.4301 C   0  0  0  0  0  4           0  0  0
    4.2279   -2.4380    0.0000 C   0  0  0  0  0  4           0  0  0
    3.4905   -1.0957    0.0000 C   0  0  0  0  0  4           0  0  0
  1 12  1  0     0  0
  1 13  1  0     0  0
  2 14  1  0     0  0
  3 15  1  0     0  0
  3 31  1  0     0  0
  4 16  1  0     0  0
  4 34  1  0     0  0
  5 30  2  0     0  0
  6 32  1  0     0  0
  6 33  1  0     0  0
  7 17  1  0     0  0
  7 18  2  0     0  0
  8 17  2  0     0  0
  8 19  1  0     0  0
  9 12  1  0     0  0
  9 18  1  0     0  0
 10 20  1  0     0  0
 10 30  1  0     0  0
 11 35  1  0     0  0
 11 36  1  0     0  0
 11 37  1  0     0  0
 12 23  2  0     0  0
 13 22  2  0     0  0
 14 24  2  0     0  0
 14 25  1  0     0  0
 15 16  1  0     0  0
 15 26  2  0     0  0
 16 27  2  0     0  0
 18 21  1  0     0  0
 19 21  2  0     0  0
 19 26  1  0     0  0
 20 28  2  0     0  0
 20 29  1  0     0  0
 21 27  1  0     0  0
 22 23  1  0     0  0
 22 30  1  0     0  0
 24 28  1  0     0  0
 25 29  2  0     0  0
 31 38  1  0     0  0
 32 35  1  0     0  0
 33 36  1  0     0  0
 37 38  1  0     0  0
M  END
> <standard_type>
pIC50

> <# Confs.>
25

> <canonical_smiles>
COC1=CC2=C(C=C1OCCCN3CCOCC3)N=CN=C2NC4=CC(C(NC5=CC=C(F)C=C5)=O)=CS4

> <standard_relation>
=

> <Publication_ID>
nan

> <predicted_activity_value>
7.309803919971486

> <actual_activity_value>
7.318758762624412

> <Compound>
31

> <standard_units>
nM

> hash
17356734584795054981

$$$$
31_
XXILIB    08252103423D 0   0.00000     0.00000

 38 42  0     1  0            999 V2000
   -7.2827    0.4676    2.3037 S   0  0  0  0  0  2           0  0  0
  -12.0161    4.1892   -6.2092 F   0  0  0  0  0  1           0  0  0
    1.3665    0.0000   -0.0000 O   0  0  0  0  0  2           0  0  0
   -0.0434   -0.0157    2.3502 O   0  0  0  0  0  2           0  0  0
  -10.1369    3.1184   -0.0186 O   0  0  0  0  0  2           0  0  0
    6.1384   -3.6358   -3.7399 O   0  0  0  0  0  2           0  0  0
   -4.7535    0.1311   -1.6038 N   0  0  0  0  0  3           0  0  0
   -2.5630    0.1450   -2.5763 N   0  0  0  0  0  3           0  0  0
   -5.0644    0.0745    0.7628 N   0  0  0  0  0  3           0  0  0
   -9.1698    2.1886   -1.9060 N   0  0  0  0  0  3           0  0  0
    4.3984   -1.9622   -2.2151 N   0  0  2  0  0  3           0  0  0
   -6.3184    0.5736    0.8847 C   0  0  0  0  0  4           0  0  0
   -8.5839    1.2958    1.5745 C   0  0  0  0  0  4           0  0  0
  -11.3349    3.7099   -5.1595 C   0  0  0  0  0  4           0  0  0
    0.0000    0.0000    0.0000 C   0  0  0  0  0  4           0  0  0
   -0.7454   -0.0000    1.1787 C   0  0  0  0  0  4           0  0  0
   -3.9020    0.1515   -2.6379 C   0  0  0  0  0  4           0  0  0
   -4.2075    0.1184   -0.3620 C   0  0  0  0  0  4           0  0  0
   -2.0197    0.1040   -1.3533 C   0  0  0  0  0  4           0  0  0
   -9.9182    2.7173   -2.9772 C   0  0  0  0  0  4           0  0  0
   -2.8001    0.0834   -0.1795 C   0  0  0  0  0  4           0  0  0
   -8.3250    1.6693    0.2706 C   0  0  0  0  0  4           0  0  0
   -7.0093    1.2411   -0.1129 C   0  0  0  0  0  4           0  0  0
  -11.6959    4.0984   -3.8735 C   0  0  0  0  0  4           0  0  0
  -10.2781    2.8309   -5.3722 C   0  0  0  0  0  4           0  0  0
   -0.6347    0.0732   -1.2426 C   0  0  0  0  0  4           0  0  0
   -2.1406    0.0295    1.0793 C   0  0  0  0  0  4           0  0  0
  -10.9867    3.6023   -2.7788 C   0  0  0  0  0  4           0  0  0
   -9.5686    2.3341   -4.2788 C   0  0  0  0  0  4           0  0  0
   -9.2929    2.3918   -0.5395 C   0  0  0  0  0  4           0  0  0
    1.9811   -1.1163    0.6445 C   0  0  0  0  0  4           0  0  0
    5.4586   -2.5438   -4.3580 C   0  0  0  0  0  4           0  0  0
    6.4279   -3.3428   -2.3734 C   0  0  0  0  0  4           0  0  0
   -0.8331   -0.0152    3.5364 C   0  0  0  0  0  4           0  0  0
    4.1465   -2.2583   -3.6348 C   0  0  0  0  0  4           0  0  0
    5.1390   -3.0762   -1.5996 C   0  0  0  0  0  4           0  0  0
    3.1331   -1.6996   -1.5237 C   0  0  0  0  0  4           0  0  0
    3.3157   -1.3825   -0.0365 C   0  0  0  0  0  4           0  0  0
  1 12  1  0     0  0
  1 13  1  0     0  0
  2 14  1  0     0  0
  3 15  1  0     0  0
  3 31  1  0     0  0
  4 16  1  0     0  0
  4 34  1  0     0  0
  5 30  2  0     0  0
  6 32  1  0     0  0
  6 33  1  0     0  0
  7 17  1  0     0  0
  7 18  2  0     0  0
  8 17  2  0     0  0
  8 19  1  0     0  0
  9 12  1  0     0  0
  9 18  1  0     0  0
 10 20  1  0     0  0
 10 30  1  0     0  0
 11 35  1  0     0  0
 11 36  1  0     0  0
 11 37  1  0     0  0
 12 23  2  0     0  0
 13 22  2  0     0  0
 14 24  2  0     0  0
 14 25  1  0     0  0
 15 16  1  0     0  0
 15 26  2  0     0  0
 16 27  2  0     0  0
 18 21  1  0     0  0
 19 21  2  0     0  0
 19 26  1  0     0  0
 20 28  2  0     0  0
 20 29  1  0     0  0
 21 27  1  0     0  0
 22 23  1  0     0  0
 22 30  1  0     0  0
 24 28  1  0     0  0
 25 29  2  0     0  0
 31 38  1  0     0  0
 32 35  1  0     0  0
 33 36  1  0     0  0
 37 38  1  0     0  0
M  END
> <standard_type>
pIC50

> <# Confs.>
25

> <canonical_smiles>
COC1=CC2=C(C=C1OCCCN3CCOCC3)N=CN=C2NC4=CC(C(NC5=CC=C(F)C=C5)=O)=CS4

> <standard_relation>
=

> <Publication_ID>
nan

> <predicted_activity_value>
7.309803919971486

> <actual_activity_value>
7.318758762624412

> <Compound>
31

> <standard_units>
nM

> hash
17356734584795054981

$$$$
31_
XXILIB    08252103423D 0   0.00000     0.00000

 38 42  0     1  0            999 V2000
   -6.9732   -0.8350    2.4887 S   0  0  0  0  0  2           0  0  0
   -9.0918   -8.3265   -4.4429 F   0  0  0  0  0  1           0  0  0
    1.3665   -0.0000   -0.0000 O   0  0  0  0  0  2           0  0  0
   -0.0434   -0.0157    2.3502 O   0  0  0  0  0  2           0  0  0
   -8.2180   -4.9795    1.1281 O   0  0  0  0  0  2           0  0  0
    2.9652   -6.5370   -0.2985 O   0  0  0  0  0  2           0  0  0
   -4.7535    0.1311   -1.6038 N   0  0  0  0  0  3           0  0  0
   -2.5630    0.1450   -2.5763 N   0  0  0  0  0  3           0  0  0
   -5.0644    0.0745    0.7628 N   0  0  0  0  0  3           0  0  0
   -7.6466   -4.2481   -0.9933 N   0  0  0  0  0  3           0  0  0
    3.2789   -3.8200    0.5219 N   0  0  2  0  0  3           0  0  0
   -5.9743   -0.8747    1.0903 C   0  0  0  0  0  4           0  0  0
   -7.7198   -2.3169    2.0919 C   0  0  0  0  0  4           0  0  0
   -8.7445   -7.3460   -3.5980 C   0  0  0  0  0  4           0  0  0
    0.0000    0.0000    0.0000 C   0  0  0  0  0  4           0  0  0
   -0.7454   -0.0000    1.1787 C   0  0  0  0  0  4           0  0  0
   -3.9020    0.1515   -2.6379 C   0  0  0  0  0  4           0  0  0
   -4.2075    0.1184   -0.3620 C   0  0  0  0  0  4           0  0  0
   -2.0197    0.1040   -1.3533 C   0  0  0  0  0  4           0  0  0
   -8.0263   -5.3082   -1.8413 C   0  0  0  0  0  4           0  0  0
   -2.8001    0.0834   -0.1795 C   0  0  0  0  0  4           0  0  0
   -7.2464   -2.8635    0.9156 C   0  0  0  0  0  4           0  0  0
   -6.2347   -2.0160    0.3502 C   0  0  0  0  0  4           0  0  0
   -8.9699   -7.5051   -2.2345 C   0  0  0  0  0  4           0  0  0
   -8.1636   -6.1852   -4.0975 C   0  0  0  0  0  4           0  0  0
   -0.6347    0.0732   -1.2426 C   0  0  0  0  0  4           0  0  0
   -2.1406    0.0295    1.0793 C   0  0  0  0  0  4           0  0  0
   -8.6110   -6.4846   -1.3529 C   0  0  0  0  0  4           0  0  0
   -7.8041   -5.1646   -3.2172 C   0  0  0  0  0  4           0  0  0
   -7.7471   -4.1213    0.3842 C   0  0  0  0  0  4           0  0  0
    1.9811   -1.1163    0.6445 C   0  0  0  0  0  4           0  0  0
    3.2518   -6.2201    1.0632 C   0  0  0  0  0  4           0  0  0
    2.1929   -5.5022   -0.9067 C   0  0  0  0  0  4           0  0  0
   -0.8331   -0.0152    3.5364 C   0  0  0  0  0  4           0  0  0
    4.0360   -4.9150    1.1501 C   0  0  0  0  0  4           0  0  0
    2.9507   -4.1774   -0.8684 C   0  0  0  0  0  4           0  0  0
    4.0425   -2.5714    0.5991 C   0  0  0  0  0  4           0  0  0
    3.3157   -1.3825   -0.0365 C   0  0  0  0  0  4           0  0  0
  1 12  1  0     0  0
  1 13  1  0     0  0
  2 14  1  0     0  0
  3 15  1  0     0  0
  3 31  1  0     0  0
  4 16  1  0     0  0
  4 34  1  0     0  0
  5 30  2  0     0  0
  6 32  1  0     0  0
  6 33  1  0     0  0
  7 17  1  0     0  0
  7 18  2  0     0  0
  8 17  2  0     0  0
  8 19  1  0     0  0
  9 12  1  0     0  0
  9 18  1  0     0  0
 10 20  1  0     0  0
 10 30  1  0     0  0
 11 35  1  0     0  0
 11 36  1  0     0  0
 11 37  1  0     0  0
 12 23  2  0     0  0
 13 22  2  0     0  0
 14 24  2  0     0  0
 14 25  1  0     0  0
 15 16  1  0     0  0
 15 26  2  0     0  0
 16 27  2  0     0  0
 18 21  1  0     0  0
 19 21  2  0     0  0
 19 26  1  0     0  0
 20 28  2  0     0  0
 20 29  1  0     0  0
 21 27  1  0     0  0
 22 23  1  0     0  0
 22 30  1  0     0  0
 24 28  1  0     0  0
 25 29  2  0     0  0
 31 38  1  0     0  0
 32 35  1  0     0  0
 33 36  1  0     0  0
 37 38  1  0     0  0
M  END
> <standard_type>
pIC50

> <# Confs.>
25

> <canonical_smiles>
COC1=CC2=C(C=C1OCCCN3CCOCC3)N=CN=C2NC4=CC(C(NC5=CC=C(F)C=C5)=O)=CS4

> <standard_relation>
=

> <Publication_ID>
nan

> <predicted_activity_value>
7.309803919971486

> <actual_activity_value>
7.318758762624412

> <Compound>
31

> <standard_units>
nM

> hash
17356734584795054981

$$$$
31_
XXILIB    08252103423D 0   0.00000     0.00000

 38 42  0     1  0            999 V2000
   -7.2827    0.4676    2.3037 S   0  0  0  0  0  2           0  0  0
  -12.0161    4.1892   -6.2092 F   0  0  0  0  0  1           0  0  0
    1.3665   -0.0000    0.0000 O   0  0  0  0  0  2           0  0  0
   -0.0434   -0.0157    2.3502 O   0  0  0  0  0  2           0  0  0
  -10.1369    3.1184   -0.0186 O   0  0  0  0  0  2           0  0  0
    2.9498    6.5257   -0.3292 O   0  0  0  0  0  2           0  0  0
   -4.7535    0.1311   -1.6038 N   0  0  0  0  0  3           0  0  0
   -2.5630    0.1450   -2.5763 N   0  0  0  0  0  3           0  0  0
   -5.0644    0.0745    0.7628 N   0  0  0  0  0  3           0  0  0
   -9.1698    2.1886   -1.9060 N   0  0  0  0  0  3           0  0  0
    3.2789    3.8200    0.5219 N   0  0  2  0  0  3           0  0  0
   -6.3184    0.5736    0.8847 C   0  0  0  0  0  4           0  0  0
   -8.5839    1.2958    1.5745 C   0  0  0  0  0  4           0  0  0
  -11.3349    3.7099   -5.1595 C   0  0  0  0  0  4           0  0  0
    0.0000    0.0000    0.0000 C   0  0  0  0  0  4           0  0  0
   -0.7454   -0.0000    1.1787 C   0  0  0  0  0  4           0  0  0
   -3.9020    0.1515   -2.6379 C   0  0  0  0  0  4           0  0  0
   -4.2075    0.1184   -0.3620 C   0  0  0  0  0  4           0  0  0
   -2.0197    0.1040   -1.3533 C   0  0  0  0  0  4           0  0  0
   -9.9182    2.7173   -2.9772 C   0  0  0  0  0  4           0  0  0
   -2.8001    0.0834   -0.1795 C   0  0  0  0  0  4           0  0  0
   -8.3250    1.6693    0.2706 C   0  0  0  0  0  4           0  0  0
   -7.0093    1.2411   -0.1129 C   0  0  0  0  0  4           0  0  0
  -11.6959    4.0984   -3.8735 C   0  0  0  0  0  4           0  0  0
  -10.2781    2.8309   -5.3722 C   0  0  0  0  0  4           0  0  0
   -0.6347    0.0732   -1.2426 C   0  0  0  0  0  4           0  0  0
   -2.1406    0.0295    1.0793 C   0  0  0  0  0  4           0  0  0
  -10.9867    3.6023   -2.7788 C   0  0  0  0  0  4           0  0  0
   -9.5686    2.3341   -4.2788 C   0  0  0  0  0  4           0  0  0
   -9.2929    2.3918   -0.5395 C   0  0  0  0  0  4           0  0  0
    1.9811    1.1163    0.6445 C   0  0  0  0  0  4           0  0  0
    2.2341    5.4719   -0.9727 C   0  0  0  0  0  4           0  0  0
    3.1697    6.2204    1.0475 C   0  0  0  0  0  4           0  0  0
   -0.8331   -0.0152    3.5364 C   0  0  0  0  0  4           0  0  0
    3.0189    4.1671   -0.8848 C   0  0  0  0  0  4           0  0  0
    3.9780    4.9326    1.1866 C   0  0  0  0  0  4           0  0  0
    4.0425    2.5714    0.5991 C   0  0  0  0  0  4           0  0  0
    3.3157    1.3825   -0.0365 C   0  0  0  0  0  4           0  0  0
  1 12  1  0     0  0
  1 13  1  0     0  0
  2 14  1  0     0  0
  3 15  1  0     0  0
  3 31  1  0     0  0
  4 16  1  0     0  0
  4 34  1  0     0  0
  5 30  2  0     0  0
  6 32  1  0     0  0
  6 33  1  0     0  0
  7 17  1  0     0  0
  7 18  2  0     0  0
  8 17  2  0     0  0
  8 19  1  0     0  0
  9 12  1  0     0  0
  9 18  1  0     0  0
 10 20  1  0     0  0
 10 30  1  0     0  0
 11 35  1  0     0  0
 11 36  1  0     0  0
 11 37  1  0     0  0
 12 23  2  0     0  0
 13 22  2  0     0  0
 14 24  2  0     0  0
 14 25  1  0     0  0
 15 16  1  0     0  0
 15 26  2  0     0  0
 16 27  2  0     0  0
 18 21  1  0     0  0
 19 21  2  0     0  0
 19 26  1  0     0  0
 20 28  2  0     0  0
 20 29  1  0     0  0
 21 27  1  0     0  0
 22 23  1  0     0  0
 22 30  1  0     0  0
 24 28  1  0     0  0
 25 29  2  0     0  0
 31 38  1  0     0  0
 32 35  1  0     0  0
 33 36  1  0     0  0
 37 38  1  0     0  0
M  END
> <standard_type>
pIC50

> <# Confs.>
25

> <canonical_smiles>
COC1=CC2=C(C=C1OCCCN3CCOCC3)N=CN=C2NC4=CC(C(NC5=CC=C(F)C=C5)=O)=CS4

> <standard_relation>
=

> <Publication_ID>
nan

> <predicted_activity_value>
7.309803919971486

> <actual_activity_value>
7.318758762624412

> <Compound>
31

> <standard_units>
nM

> hash
17356734584795054981

$$$$
31_
XXILIB    08252103423D 0   0.00000     0.00000

 38 42  0     1  0            999 V2000
   -7.2827    0.4676    2.3037 S   0  0  0  0  0  2           0  0  0
  -11.0336    6.4745   -5.3452 F   0  0  0  0  0  1           0  0  0
    1.3665   -0.0000    0.0000 O   0  0  0  0  0  2           0  0  0
   -0.0434   -0.0157    2.3502 O   0  0  0  0  0  2           0  0  0
  -10.4993    2.2876   -0.3266 O   0  0  0  0  0  2           0  0  0
    7.7128    1.5712    1.3491 O   0  0  0  0  0  2           0  0  0
   -4.7535    0.1311   -1.6038 N   0  0  0  0  0  3           0  0  0
   -2.5630    0.1450   -2.5763 N   0  0  0  0  0  3           0  0  0
   -5.0644    0.0745    0.7628 N   0  0  0  0  0  3           0  0  0
   -8.7385    3.1820   -1.5355 N   0  0  0  0  0  3           0  0  0
    5.4068   -0.1110    1.2699 N   0  0  2  0  0  3           0  0  0
   -6.3184    0.5736    0.8847 C   0  0  0  0  0  4           0  0  0
   -8.5839    1.2958    1.5745 C   0  0  0  0  0  4           0  0  0
  -10.4889    5.6732   -4.4194 C   0  0  0  0  0  4           0  0  0
    0.0000    0.0000    0.0000 C   0  0  0  0  0  4           0  0  0
   -0.7454   -0.0000    1.1787 C   0  0  0  0  0  4           0  0  0
   -3.9020    0.1515   -2.6379 C   0  0  0  0  0  4           0  0  0
   -4.2075    0.1184   -0.3620 C   0  0  0  0  0  4           0  0  0
   -2.0197    0.1040   -1.3533 C   0  0  0  0  0  4           0  0  0
   -9.3585    4.0102   -2.4929 C   0  0  0  0  0  4           0  0  0
   -2.8001    0.0834   -0.1795 C   0  0  0  0  0  4           0  0  0
   -8.3250    1.6693    0.2706 C   0  0  0  0  0  4           0  0  0
   -7.0093    1.2411   -0.1129 C   0  0  0  0  0  4           0  0  0
  -11.3154    4.9885   -3.5344 C   0  0  0  0  0  4           0  0  0
   -9.1059    5.5382   -4.3584 C   0  0  0  0  0  4           0  0  0
   -0.6347    0.0732   -1.2426 C   0  0  0  0  0  4           0  0  0
   -2.1406    0.0295    1.0793 C   0  0  0  0  0  4           0  0  0
  -10.7505    4.1551   -2.5680 C   0  0  0  0  0  4           0  0  0
   -8.5401    4.7052   -3.3931 C   0  0  0  0  0  4           0  0  0
   -9.2929    2.3918   -0.5395 C   0  0  0  0  0  4           0  0  0
    1.9811   -1.2890    0.0000 C   0  0  0  0  0  4           0  0  0
    7.2880    0.8692    2.5168 C   0  0  0  0  0  4           0  0  0
    7.3954    0.8311    0.1707 C   0  0  0  0  0  4           0  0  0
   -0.8331   -0.0152    3.5364 C   0  0  0  0  0  4           0  0  0
    5.7806    0.6407    2.4791 C   0  0  0  0  0  4           0  0  0
    5.8892    0.6005    0.0743 C   0  0  0  0  0  4           0  0  0
    3.9563   -0.3176    1.2342 C   0  0  0  0  0  4           0  0  0
    3.4905   -1.0957    0.0000 C   0  0  0  0  0  4           0  0  0
  1 12  1  0     0  0
  1 13  1  0     0  0
  2 14  1  0     0  0
  3 15  1  0     0  0
  3 31  1  0     0  0
  4 16  1  0     0  0
  4 34  1  0     0  0
  5 30  2  0     0  0
  6 32  1  0     0  0
  6 33  1  0     0  0
  7 17  1  0     0  0
  7 18  2  0     0  0
  8 17  2  0     0  0
  8 19  1  0     0  0
  9 12  1  0     0  0
  9 18  1  0     0  0
 10 20  1  0     0  0
 10 30  1  0     0  0
 11 35  1  0     0  0
 11 36  1  0     0  0
 11 37  1  0     0  0
 12 23  2  0     0  0
 13 22  2  0     0  0
 14 24  2  0     0  0
 14 25  1  0     0  0
 15 16  1  0     0  0
 15 26  2  0     0  0
 16 27  2  0     0  0
 18 21  1  0     0  0
 19 21  2  0     0  0
 19 26  1  0     0  0
 20 28  2  0     0  0
 20 29  1  0     0  0
 21 27  1  0     0  0
 22 23  1  0     0  0
 22 30  1  0     0  0
 24 28  1  0     0  0
 25 29  2  0     0  0
 31 38  1  0     0  0
 32 35  1  0     0  0
 33 36  1  0     0  0
 37 38  1  0     0  0
M  END
> <standard_type>
pIC50

> <# Confs.>
25

> <canonical_smiles>
COC1=CC2=C(C=C1OCCCN3CCOCC3)N=CN=C2NC4=CC(C(NC5=CC=C(F)C=C5)=O)=CS4

> <standard_relation>
=

> <Publication_ID>
nan

> <predicted_activity_value>
7.309803919971486

> <actual_activity_value>
7.318758762624412

> <Compound>
31

> <standard_units>
nM

> hash
17356734584795054981

$$$$
31_
XXILIB    08252103423D 0   0.00000     0.00000

 38 42  0     1  0            999 V2000
   -7.0128    0.8195    2.5230 S   0  0  0  0  0  2           0  0  0
   -9.4386    8.5191   -4.0768 F   0  0  0  0  0  1           0  0  0
    1.3665   -0.0000   -0.0000 O   0  0  0  0  0  2           0  0  0
   -0.0434   -0.0157    2.3502 O   0  0  0  0  0  2           0  0  0
   -8.4506    4.9540    1.3376 O   0  0  0  0  0  2           0  0  0
    2.9652   -6.5370   -0.2985 O   0  0  0  0  0  2           0  0  0
   -4.7535    0.1311   -1.6038 N   0  0  0  0  0  3           0  0  0
   -2.5630    0.1450   -2.5763 N   0  0  0  0  0  3           0  0  0
   -5.0644    0.0745    0.7628 N   0  0  0  0  0  3           0  0  0
   -7.8450    4.3444   -0.8127 N   0  0  0  0  0  3           0  0  0
    3.2789   -3.8200    0.5219 N   0  0  2  0  0  3           0  0  0
   -6.0184    0.9648    1.1285 C   0  0  0  0  0  4           0  0  0
   -7.8366    2.2741    2.1820 C   0  0  0  0  0  4           0  0  0
   -9.0583    7.5135   -3.2769 C   0  0  0  0  0  4           0  0  0
    0.0000    0.0000    0.0000 C   0  0  0  0  0  4           0  0  0
   -0.7454   -0.0000    1.1787 C   0  0  0  0  0  4           0  0  0
   -3.9020    0.1515   -2.6379 C   0  0  0  0  0  4           0  0  0
   -4.2075    0.1184   -0.3620 C   0  0  0  0  0  4           0  0  0
   -2.0197    0.1040   -1.3533 C   0  0  0  0  0  4           0  0  0
   -8.2659    5.4260   -1.6129 C   0  0  0  0  0  4           0  0  0
   -2.8001    0.0834   -0.1795 C   0  0  0  0  0  4           0  0  0
   -7.3863    2.8946    1.0335 C   0  0  0  0  0  4           0  0  0
   -6.3347    2.1213    0.4353 C   0  0  0  0  0  4           0  0  0
   -9.2963    7.5989   -1.9090 C   0  0  0  0  0  4           0  0  0
   -8.4324    6.3998   -3.8270 C   0  0  0  0  0  4           0  0  0
   -0.6347    0.0732   -1.2426 C   0  0  0  0  0  4           0  0  0
   -2.1406    0.0295    1.0793 C   0  0  0  0  0  4           0  0  0
   -8.8994    6.5539   -1.0736 C   0  0  0  0  0  4           0  0  0
   -8.0355    5.3545   -2.9930 C   0  0  0  0  0  4           0  0  0
   -7.9433    4.1507    0.5572 C   0  0  0  0  0  4           0  0  0
    1.9811   -1.1163    0.6445 C   0  0  0  0  0  4           0  0  0
    3.2518   -6.2201    1.0632 C   0  0  0  0  0  4           0  0  0
    2.1929   -5.5022   -0.9067 C   0  0  0  0  0  4           0  0  0
   -0.8331   -0.0152    3.5364 C   0  0  0  0  0  4           0  0  0
    4.0360   -4.9150    1.1501 C   0  0  0  0  0  4           0  0  0
    2.9507   -4.1774   -0.8684 C   0  0  0  0  0  4           0  0  0
    4.0425   -2.5714    0.5991 C   0  0  0  0  0  4           0  0  0
    3.3157   -1.3825   -0.0365 C   0  0  0  0  0  4           0  0  0
  1 12  1  0     0  0
  1 13  1  0     0  0
  2 14  1  0     0  0
  3 15  1  0     0  0
  3 31  1  0     0  0
  4 16  1  0     0  0
  4 34  1  0     0  0
  5 30  2  0     0  0
  6 32  1  0     0  0
  6 33  1  0     0  0
  7 17  1  0     0  0
  7 18  2  0     0  0
  8 17  2  0     0  0
  8 19  1  0     0  0
  9 12  1  0     0  0
  9 18  1  0     0  0
 10 20  1  0     0  0
 10 30  1  0     0  0
 11 35  1  0     0  0
 11 36  1  0     0  0
 11 37  1  0     0  0
 12 23  2  0     0  0
 13 22  2  0     0  0
 14 24  2  0     0  0
 14 25  1  0     0  0
 15 16  1  0     0  0
 15 26  2  0     0  0
 16 27  2  0     0  0
 18 21  1  0     0  0
 19 21  2  0     0  0
 19 26  1  0     0  0
 20 28  2  0     0  0
 20 29  1  0     0  0
 21 27  1  0     0  0
 22 23  1  0     0  0
 22 30  1  0     0  0
 24 28  1  0     0  0
 25 29  2  0     0  0
 31 38  1  0     0  0
 32 35  1  0     0  0
 33 36  1  0     0  0
 37 38  1  0     0  0
M  END
> <standard_type>
pIC50

> <# Confs.>
25

> <canonical_smiles>
COC1=CC2=C(C=C1OCCCN3CCOCC3)N=CN=C2NC4=CC(C(NC5=CC=C(F)C=C5)=O)=CS4

> <standard_relation>
=

> <Publication_ID>
nan

> <predicted_activity_value>
7.309803919971486

> <actual_activity_value>
7.318758762624412

> <Compound>
31

> <standard_units>
nM

> hash
17356734584795054981

$$$$
31_
XXILIB    08252103423D 0   0.00000     0.00000

 38 42  0     1  0            999 V2000
   -7.2598   -0.4877    2.2839 S   0  0  0  0  0  2           0  0  0
  -11.8559   -4.0174   -6.3807 F   0  0  0  0  0  1           0  0  0
    1.3665   -0.0000    0.0000 O   0  0  0  0  0  2           0  0  0
   -0.0434   -0.0157    2.3502 O   0  0  0  0  0  2           0  0  0
   -9.9903   -3.1691   -0.1516 O   0  0  0  0  0  2           0  0  0
    7.5472    0.2752   -2.5076 O   0  0  0  0  0  2           0  0  0
   -4.7535    0.1311   -1.6038 N   0  0  0  0  0  3           0  0  0
   -2.5630    0.1450   -2.5763 N   0  0  0  0  0  3           0  0  0
   -5.0644    0.0745    0.7628 N   0  0  0  0  0  3           0  0  0
   -9.0708   -2.1118   -1.9950 N   0  0  0  0  0  3           0  0  0
    5.5447   -0.3891   -0.5835 N   0  0  2  0  0  3           0  0  0
   -6.2930   -0.4885    0.8627 C   0  0  0  0  0  4           0  0  0
   -8.5165   -1.3548    1.5225 C   0  0  0  0  0  4           0  0  0
  -11.1872   -3.5640   -5.3115 C   0  0  0  0  0  4           0  0  0
    0.0000    0.0000    0.0000 C   0  0  0  0  0  4           0  0  0
   -0.7454    0.0000    1.1787 C   0  0  0  0  0  4           0  0  0
   -3.9020    0.1515   -2.6379 C   0  0  0  0  0  4           0  0  0
   -4.2075    0.1184   -0.3620 C   0  0  0  0  0  4           0  0  0
   -2.0197    0.1040   -1.3533 C   0  0  0  0  0  4           0  0  0
   -9.8008   -2.6205   -3.0884 C   0  0  0  0  0  4           0  0  0
   -2.8001    0.0834   -0.1795 C   0  0  0  0  0  4           0  0  0
   -8.2442   -1.6551    0.2025 C   0  0  0  0  0  4           0  0  0
   -6.9515   -1.1476   -0.1621 C   0  0  0  0  0  4           0  0  0
  -11.5239   -4.0301   -4.0449 C   0  0  0  0  0  4           0  0  0
  -10.1666   -2.6351   -5.4851 C   0  0  0  0  0  4           0  0  0
   -0.6347    0.0732   -1.2426 C   0  0  0  0  0  4           0  0  0
   -2.1406    0.0295    1.0793 C   0  0  0  0  0  4           0  0  0
  -10.8305   -3.5580   -2.9297 C   0  0  0  0  0  4           0  0  0
   -9.4725   -2.1626   -4.3712 C   0  0  0  0  0  4           0  0  0
   -9.1796   -2.3841   -0.6394 C   0  0  0  0  0  4           0  0  0
    1.9811   -1.1163    0.6445 C   0  0  0  0  0  4           0  0  0
    7.7323    0.5962   -1.1294 C   0  0  0  0  0  4           0  0  0
    6.7711   -0.9140   -2.6500 C   0  0  0  0  0  4           0  0  0
   -0.8331   -0.0152    3.5364 C   0  0  0  0  0  4           0  0  0
    6.3842    0.8126   -0.4497 C   0  0  0  0  0  4           0  0  0
    5.3978   -0.7359   -2.0070 C   0  0  0  0  0  4           0  0  0
    4.2471   -0.1708    0.0621 C   0  0  0  0  0  4           0  0  0
    3.3157   -1.3825   -0.0365 C   0  0  0  0  0  4           0  0  0
  1 12  1  0     0  0
  1 13  1  0     0  0
  2 14  1  0     0  0
  3 15  1  0     0  0
  3 31  1  0     0  0
  4 16  1  0     0  0
  4 34  1  0     0  0
  5 30  2  0     0  0
  6 32  1  0     0  0
  6 33  1  0     0  0
  7 17  1  0     0  0
  7 18  2  0     0  0
  8 17  2  0     0  0
  8 19  1  0     0  0
  9 12  1  0     0  0
  9 18  1  0     0  0
 10 20  1  0     0  0
 10 30  1  0     0  0
 11 35  1  0     0  0
 11 36  1  0     0  0
 11 37  1  0     0  0
 12 23  2  0     0  0
 13 22  2  0     0  0
 14 24  2  0     0  0
 14 25  1  0     0  0
 15 16  1  0     0  0
 15 26  2  0     0  0
 16 27  2  0     0  0
 18 21  1  0     0  0
 19 21  2  0     0  0
 19 26  1  0     0  0
 20 28  2  0     0  0
 20 29  1  0     0  0
 21 27  1  0     0  0
 22 23  1  0     0  0
 22 30  1  0     0  0
 24 28  1  0     0  0
 25 29  2  0     0  0
 31 38  1  0     0  0
 32 35  1  0     0  0
 33 36  1  0     0  0
 37 38  1  0     0  0
M  END
> <standard_type>
pIC50

> <# Confs.>
25

> <canonical_smiles>
COC1=CC2=C(C=C1OCCCN3CCOCC3)N=CN=C2NC4=CC(C(NC5=CC=C(F)C=C5)=O)=CS4

> <standard_relation>
=

> <Publication_ID>
nan

> <predicted_activity_value>
7.309803919971486

> <actual_activity_value>
7.318758762624412

> <Compound>
31

> <standard_units>
nM

> hash
17356734584795054981

$$$$
31_
XXILIB    08252103423D 0   0.00000     0.00000

 38 42  0     1  0            999 V2000
   -7.2827    0.4676    2.3037 S   0  0  0  0  0  2           0  0  0
  -11.0336    6.4745   -5.3452 F   0  0  0  0  0  1           0  0  0
    1.3665   -0.0000   -0.0000 O   0  0  0  0  0  2           0  0  0
   -0.0434   -0.0157    2.3502 O   0  0  0  0  0  2           0  0  0
  -10.4993    2.2876   -0.3266 O   0  0  0  0  0  2           0  0  0
    6.1440   -2.1423    4.2173 O   0  0  0  0  0  2           0  0  0
   -4.7535    0.1311   -1.6038 N   0  0  0  0  0  3           0  0  0
   -2.5630    0.1450   -2.5763 N   0  0  0  0  0  3           0  0  0
   -5.0644    0.0745    0.7628 N   0  0  0  0  0  3           0  0  0
   -8.7385    3.1820   -1.5355 N   0  0  0  0  0  3           0  0  0
    4.3328   -2.3737    2.0220 N   0  0  2  0  0  3           0  0  0
   -6.3184    0.5736    0.8847 C   0  0  0  0  0  4           0  0  0
   -8.5839    1.2958    1.5745 C   0  0  0  0  0  4           0  0  0
  -10.4889    5.6732   -4.4194 C   0  0  0  0  0  4           0  0  0
    0.0000    0.0000    0.0000 C   0  0  0  0  0  4           0  0  0
   -0.7454   -0.0000    1.1787 C   0  0  0  0  0  4           0  0  0
   -3.9020    0.1515   -2.6379 C   0  0  0  0  0  4           0  0  0
   -4.2075    0.1184   -0.3620 C   0  0  0  0  0  4           0  0  0
   -2.0197    0.1040   -1.3533 C   0  0  0  0  0  4           0  0  0
   -9.3585    4.0102   -2.4929 C   0  0  0  0  0  4           0  0  0
   -2.8001    0.0834   -0.1795 C   0  0  0  0  0  4           0  0  0
   -8.3250    1.6693    0.2706 C   0  0  0  0  0  4           0  0  0
   -7.0093    1.2411   -0.1129 C   0  0  0  0  0  4           0  0  0
  -11.3154    4.9885   -3.5344 C   0  0  0  0  0  4           0  0  0
   -9.1059    5.5382   -4.3584 C   0  0  0  0  0  4           0  0  0
   -0.6347    0.0732   -1.2426 C   0  0  0  0  0  4           0  0  0
   -2.1406    0.0295    1.0793 C   0  0  0  0  0  4           0  0  0
  -10.7505    4.1551   -2.5680 C   0  0  0  0  0  4           0  0  0
   -8.5401    4.7052   -3.3931 C   0  0  0  0  0  4           0  0  0
   -9.2929    2.3918   -0.5395 C   0  0  0  0  0  4           0  0  0
    1.9811   -1.1163    0.6445 C   0  0  0  0  0  4           0  0  0
    5.5039   -0.9848    3.6814 C   0  0  0  0  0  4           0  0  0
    5.3053   -3.2897    4.0873 C   0  0  0  0  0  4           0  0  0
   -0.8331   -0.0152    3.5364 C   0  0  0  0  0  4           0  0  0
    5.1885   -1.1897    2.2034 C   0  0  0  0  0  4           0  0  0
    4.9836   -3.5525    2.6181 C   0  0  0  0  0  4           0  0  0
    4.0425   -2.5714    0.5991 C   0  0  0  0  0  4           0  0  0
    3.3157   -1.3825   -0.0365 C   0  0  0  0  0  4           0  0  0
  1 12  1  0     0  0
  1 13  1  0     0  0
  2 14  1  0     0  0
  3 15  1  0     0  0
  3 31  1  0     0  0
  4 16  1  0     0  0
  4 34  1  0     0  0
  5 30  2  0     0  0
  6 32  1  0     0  0
  6 33  1  0     0  0
  7 17  1  0     0  0
  7 18  2  0     0  0
  8 17  2  0     0  0
  8 19  1  0     0  0
  9 12  1  0     0  0
  9 18  1  0     0  0
 10 20  1  0     0  0
 10 30  1  0     0  0
 11 35  1  0     0  0
 11 36  1  0     0  0
 11 37  1  0     0  0
 12 23  2  0     0  0
 13 22  2  0     0  0
 14 24  2  0     0  0
 14 25  1  0     0  0
 15 16  1  0     0  0
 15 26  2  0     0  0
 16 27  2  0     0  0
 18 21  1  0     0  0
 19 21  2  0     0  0
 19 26  1  0     0  0
 20 28  2  0     0  0
 20 29  1  0     0  0
 21 27  1  0     0  0
 22 23  1  0     0  0
 22 30  1  0     0  0
 24 28  1  0     0  0
 25 29  2  0     0  0
 31 38  1  0     0  0
 32 35  1  0     0  0
 33 36  1  0     0  0
 37 38  1  0     0  0
M  END
> <standard_type>
pIC50

> <# Confs.>
25

> <canonical_smiles>
COC1=CC2=C(C=C1OCCCN3CCOCC3)N=CN=C2NC4=CC(C(NC5=CC=C(F)C=C5)=O)=CS4

> <standard_relation>
=

> <Publication_ID>
nan

> <predicted_activity_value>
7.309803919971486

> <actual_activity_value>
7.318758762624412

> <Compound>
31

> <standard_units>
nM

> hash
17356734584795054981

$$$$
31_
XXILIB    08252103423D 0   0.00000     0.00000

 38 42  0     1  0            999 V2000
   -7.2827    0.4676    2.3037 S   0  0  0  0  0  2           0  0  0
  -12.0161    4.1892   -6.2092 F   0  0  0  0  0  1           0  0  0
    1.3665    0.0000   -0.0000 O   0  0  0  0  0  2           0  0  0
   -0.0434   -0.0157    2.3502 O   0  0  0  0  0  2           0  0  0
  -10.1369    3.1184   -0.0186 O   0  0  0  0  0  2           0  0  0
    6.3294    0.9116    4.3707 O   0  0  0  0  0  2           0  0  0
   -4.7535    0.1311   -1.6038 N   0  0  0  0  0  3           0  0  0
   -2.5630    0.1450   -2.5763 N   0  0  0  0  0  3           0  0  0
   -5.0644    0.0745    0.7628 N   0  0  0  0  0  3           0  0  0
   -9.1698    2.1886   -1.9060 N   0  0  0  0  0  3           0  0  0
    4.3984   -0.5918    2.8994 N   0  0  2  0  0  3           0  0  0
   -6.3184    0.5736    0.8847 C   0  0  0  0  0  4           0  0  0
   -8.5839    1.2958    1.5745 C   0  0  0  0  0  4           0  0  0
  -11.3349    3.7099   -5.1595 C   0  0  0  0  0  4           0  0  0
    0.0000    0.0000    0.0000 C   0  0  0  0  0  4           0  0  0
   -0.7454   -0.0000    1.1787 C   0  0  0  0  0  4           0  0  0
   -3.9020    0.1515   -2.6379 C   0  0  0  0  0  4           0  0  0
   -4.2075    0.1184   -0.3620 C   0  0  0  0  0  4           0  0  0
   -2.0197    0.1040   -1.3533 C   0  0  0  0  0  4           0  0  0
   -9.9182    2.7173   -2.9772 C   0  0  0  0  0  4           0  0  0
   -2.8001    0.0834   -0.1795 C   0  0  0  0  0  4           0  0  0
   -8.3250    1.6693    0.2706 C   0  0  0  0  0  4           0  0  0
   -7.0093    1.2411   -0.1129 C   0  0  0  0  0  4           0  0  0
  -11.6959    4.0984   -3.8735 C   0  0  0  0  0  4           0  0  0
  -10.2781    2.8309   -5.3722 C   0  0  0  0  0  4           0  0  0
   -0.6347    0.0732   -1.2426 C   0  0  0  0  0  4           0  0  0
   -2.1406    0.0295    1.0793 C   0  0  0  0  0  4           0  0  0
  -10.9867    3.6023   -2.7788 C   0  0  0  0  0  4           0  0  0
   -9.5686    2.3341   -4.2788 C   0  0  0  0  0  4           0  0  0
   -9.2929    2.3918   -0.5395 C   0  0  0  0  0  4           0  0  0
    1.9811   -1.2890    0.0000 C   0  0  0  0  0  4           0  0  0
    5.4605   -0.0021    5.0392 C   0  0  0  0  0  4           0  0  0
    6.6170    0.4600    3.0477 C   0  0  0  0  0  4           0  0  0
   -0.8331   -0.0152    3.5364 C   0  0  0  0  0  4           0  0  0
    4.1465   -0.1383    4.2770 C   0  0  0  0  0  4           0  0  0
    5.3307    0.3342    2.2348 C   0  0  0  0  0  4           0  0  0
    3.1331   -0.7101    2.1694 C   0  0  0  0  0  4           0  0  0
    3.3157   -1.1790    0.7229 C   0  0  0  0  0  4           0  0  0
  1 12  1  0     0  0
  1 13  1  0     0  0
  2 14  1  0     0  0
  3 15  1  0     0  0
  3 31  1  0     0  0
  4 16  1  0     0  0
  4 34  1  0     0  0
  5 30  2  0     0  0
  6 32  1  0     0  0
  6 33  1  0     0  0
  7 17  1  0     0  0
  7 18  2  0     0  0
  8 17  2  0     0  0
  8 19  1  0     0  0
  9 12  1  0     0  0
  9 18  1  0     0  0
 10 20  1  0     0  0
 10 30  1  0     0  0
 11 35  1  0     0  0
 11 36  1  0     0  0
 11 37  1  0     0  0
 12 23  2  0     0  0
 13 22  2  0     0  0
 14 24  2  0     0  0
 14 25  1  0     0  0
 15 16  1  0     0  0
 15 26  2  0     0  0
 16 27  2  0     0  0
 18 21  1  0     0  0
 19 21  2  0     0  0
 19 26  1  0     0  0
 20 28  2  0     0  0
 20 29  1  0     0  0
 21 27  1  0     0  0
 22 23  1  0     0  0
 22 30  1  0     0  0
 24 28  1  0     0  0
 25 29  2  0     0  0
 31 38  1  0     0  0
 32 35  1  0     0  0
 33 36  1  0     0  0
 37 38  1  0     0  0
M  END
> <standard_type>
pIC50

> <# Confs.>
25

> <canonical_smiles>
COC1=CC2=C(C=C1OCCCN3CCOCC3)N=CN=C2NC4=CC(C(NC5=CC=C(F)C=C5)=O)=CS4

> <standard_relation>
=

> <Publication_ID>
nan

> <predicted_activity_value>
7.309803919971486

> <actual_activity_value>
7.318758762624412

> <Compound>
31

> <standard_units>
nM

> hash
17356734584795054981

$$$$
31_
XXILIB    08252103423D 0   0.00000     0.00000

 38 42  0     1  0            999 V2000
   -7.2827    0.4676    2.3037 S   0  0  0  0  0  2           0  0  0
  -11.0336    6.4745   -5.3452 F   0  0  0  0  0  1           0  0  0
    1.3665   -0.0000    0.0000 O   0  0  0  0  0  2           0  0  0
   -0.0434   -0.0157    2.3502 O   0  0  0  0  0  2           0  0  0
  -10.4993    2.2876   -0.3266 O   0  0  0  0  0  2           0  0  0
    6.3294    1.3959   -4.2410 O   0  0  0  0  0  2           0  0  0
   -4.7535    0.1311   -1.6038 N   0  0  0  0  0  3           0  0  0
   -2.5630    0.1450   -2.5763 N   0  0  0  0  0  3           0  0  0
   -5.0644    0.0745    0.7628 N   0  0  0  0  0  3           0  0  0
   -8.7385    3.1820   -1.5355 N   0  0  0  0  0  3           0  0  0
    4.3984    1.9622   -2.2151 N   0  0  2  0  0  3           0  0  0
   -6.3184    0.5736    0.8847 C   0  0  0  0  0  4           0  0  0
   -8.5839    1.2958    1.5745 C   0  0  0  0  0  4           0  0  0
  -10.4889    5.6732   -4.4194 C   0  0  0  0  0  4           0  0  0
    0.0000    0.0000    0.0000 C   0  0  0  0  0  4           0  0  0
   -0.7454   -0.0000    1.1787 C   0  0  0  0  0  4           0  0  0
   -3.9020    0.1515   -2.6379 C   0  0  0  0  0  4           0  0  0
   -4.2075    0.1184   -0.3620 C   0  0  0  0  0  4           0  0  0
   -2.0197    0.1040   -1.3533 C   0  0  0  0  0  4           0  0  0
   -9.3585    4.0102   -2.4929 C   0  0  0  0  0  4           0  0  0
   -2.8001    0.0834   -0.1795 C   0  0  0  0  0  4           0  0  0
   -8.3250    1.6693    0.2706 C   0  0  0  0  0  4           0  0  0
   -7.0093    1.2411   -0.1129 C   0  0  0  0  0  4           0  0  0
  -11.3154    4.9885   -3.5344 C   0  0  0  0  0  4           0  0  0
   -9.1059    5.5382   -4.3584 C   0  0  0  0  0  4           0  0  0
   -0.6347    0.0732   -1.2426 C   0  0  0  0  0  4           0  0  0
   -2.1406    0.0295    1.0793 C   0  0  0  0  0  4           0  0  0
  -10.7505    4.1551   -2.5680 C   0  0  0  0  0  4           0  0  0
   -8.5401    4.7052   -3.3931 C   0  0  0  0  0  4           0  0  0
   -9.2929    2.3918   -0.5395 C   0  0  0  0  0  4           0  0  0
    1.9811    1.1163    0.6445 C   0  0  0  0  0  4           0  0  0
    5.4605    2.5214   -4.3630 C   0  0  0  0  0  4           0  0  0
    6.6170    1.1255   -2.8694 C   0  0  0  0  0  4           0  0  0
   -0.8331   -0.0152    3.5364 C   0  0  0  0  0  4           0  0  0
    4.1465    2.2583   -3.6348 C   0  0  0  0  0  4           0  0  0
    5.3307    0.8280   -2.1025 C   0  0  0  0  0  4           0  0  0
    3.1331    1.6996   -1.5237 C   0  0  0  0  0  4           0  0  0
    3.3157    1.3825   -0.0365 C   0  0  0  0  0  4           0  0  0
  1 12  1  0     0  0
  1 13  1  0     0  0
  2 14  1  0     0  0
  3 15  1  0     0  0
  3 31  1  0     0  0
  4 16  1  0     0  0
  4 34  1  0     0  0
  5 30  2  0     0  0
  6 32  1  0     0  0
  6 33  1  0     0  0
  7 17  1  0     0  0
  7 18  2  0     0  0
  8 17  2  0     0  0
  8 19  1  0     0  0
  9 12  1  0     0  0
  9 18  1  0     0  0
 10 20  1  0     0  0
 10 30  1  0     0  0
 11 35  1  0     0  0
 11 36  1  0     0  0
 11 37  1  0     0  0
 12 23  2  0     0  0
 13 22  2  0     0  0
 14 24  2  0     0  0
 14 25  1  0     0  0
 15 16  1  0     0  0
 15 26  2  0     0  0
 16 27  2  0     0  0
 18 21  1  0     0  0
 19 21  2  0     0  0
 19 26  1  0     0  0
 20 28  2  0     0  0
 20 29  1  0     0  0
 21 27  1  0     0  0
 22 23  1  0     0  0
 22 30  1  0     0  0
 24 28  1  0     0  0
 25 29  2  0     0  0
 31 38  1  0     0  0
 32 35  1  0     0  0
 33 36  1  0     0  0
 37 38  1  0     0  0
M  END
> <standard_type>
pIC50

> <# Confs.>
25

> <canonical_smiles>
COC1=CC2=C(C=C1OCCCN3CCOCC3)N=CN=C2NC4=CC(C(NC5=CC=C(F)C=C5)=O)=CS4

> <standard_relation>
=

> <Publication_ID>
nan

> <predicted_activity_value>
7.309803919971486

> <actual_activity_value>
7.318758762624412

> <Compound>
31

> <standard_units>
nM

> hash
17356734584795054981

$$$$
30_
XXILIB    08252103423D 0   0.00000     0.00000

 42 46  0     1  0            999 V2000
    3.9708   -0.3854    0.6675 S   0  0  0  0  0  2           0  0  0
   -3.0893   -0.1417   -4.6620 O   0  0  0  0  0  2           0  0  0
   -0.1747   -0.2609   -4.8609 O   0  0  0  0  0  2           0  0  0
    5.9311   -3.8856    2.6633 O   0  0  0  0  0  2           0  0  0
   -1.1569    4.9041   -7.4604 O   0  0  0  0  0  2           0  0  0
    1.9304   -1.1709    2.0224 N   0  0  0  0  0  3           0  0  0
   -0.6609   -0.0000    1.1846 N   0  0  0  0  0  3           0  0  0
   -2.7580   -0.0529    0.0232 N   0  0  0  0  0  3           0  0  0
    1.4139    0.0000   -0.0000 N   0  0  0  0  0  3           0  0  0
    7.8757   -7.4015   -0.0867 N   0  0  1  0  0  3           0  0  0
    6.7664   -2.7157    0.8359 N   0  0  0  0  0  3           0  0  0
   -3.6915    3.6568   -6.6129 N   0  0  2  0  0  3           0  0  0
    2.2627   -0.5298    0.9177 C   0  0  0  0  0  4           0  0  0
    4.2659   -1.2271    2.1288 C   0  0  0  0  0  4           0  0  0
   -2.2521   -0.1366   -3.5823 C   0  0  0  0  0  4           0  0  0
   -0.8636   -0.1874   -3.6774 C   0  0  0  0  0  4           0  0  0
   -1.9997   -0.0184    1.1284 C   0  0  0  0  0  4           0  0  0
    0.0000    0.0000    0.0000 C   0  0  0  0  0  4           0  0  0
   -2.1102   -0.0786   -1.1483 C   0  0  0  0  0  4           0  0  0
    3.0614   -1.5655    2.7072 C   0  0  0  0  0  4           0  0  0
    7.8928   -6.0684   -0.4414 C   0  0  0  0  0  4           0  0  0
    7.3375   -3.7156    0.0250 C   0  0  0  0  0  4           0  0  0
   -0.7028   -0.0620   -1.2307 C   0  0  0  0  0  4           0  0  0
   -2.8570   -0.1182   -2.3226 C   0  0  0  0  0  4           0  0  0
   -0.0973   -0.1204   -2.5117 C   0  0  0  0  0  4           0  0  0
    7.3170   -5.0754    0.3795 C   0  0  0  0  0  4           0  0  0
    8.4852   -5.6302   -1.6416 C   0  0  0  0  0  4           0  0  0
    7.9397   -3.3234   -1.1700 C   0  0  0  0  0  4           0  0  0
    8.5092   -4.2798   -2.0021 C   0  0  0  0  0  4           0  0  0
    6.1160   -2.8338    2.0522 C   0  0  0  0  0  4           0  0  0
   -2.9169    0.9418   -5.5758 C   0  0  0  0  0  4           0  0  0
   -2.2738    4.8210   -8.3383 C   0  0  0  0  0  4           0  0  0
    0.0199   -1.6293   -5.2161 C   0  0  0  0  0  4           0  0  0
   -3.5747    4.7933   -7.5459 C   0  0  2  0  0  4           0  0  0
   -4.1455    2.4089   -7.2319 C   0  0  0  0  0  4           0  0  0
   -4.6575    4.1007   -5.5990 C   0  0  0  0  0  4           0  0  0
    7.2543   -7.8208    1.1609 C   0  0  0  0  0  4           0  0  0
    8.4451   -8.4044   -0.9742 C   0  0  0  0  0  4           0  0  0
    5.6471   -1.5049    2.5995 C   0  0  0  0  0  4           0  0  0
   -4.2550    1.2520   -6.2349 C   0  0  0  0  0  4           0  0  0
   -3.7021    6.0339   -6.6431 C   0  0  0  0  0  4           0  0  0
   -4.2110    5.5171   -5.3065 C   0  0  0  0  0  4           0  0  0
  1 13  1  0     0  0
  1 14  1  0     0  0
  2 15  1  0     0  0
  2 31  1  0     0  0
  3 16  1  0     0  0
  3 33  1  0     0  0
  4 30  2  0     0  0
  5 32  1  0     0  0
  6 13  2  0     0  0
  6 20  1  0     0  0
  7 17  1  0     0  0
  7 18  2  0     0  0
  8 17  2  0     0  0
  8 19  1  0     0  0
  9 13  1  0     0  0
  9 18  1  0     0  0
 10 21  1  0     0  0
 10 37  1  0     0  0
 10 38  1  0     0  0
 11 22  1  0     0  0
 11 30  1  0     0  0
 12 34  1  0     0  0
 12 35  1  0     0  0
 12 36  1  0     0  0
 14 20  2  0     0  0
 14 39  1  0     0  0
 15 16  1  0     0  0
 15 24  2  0     0  0
 16 25  2  0     0  0
 18 23  1  0     0  0
 19 23  2  0     0  0
 19 24  1  0     0  0
 21 26  1  0     0  0
 21 27  2  0     0  0
 22 26  2  0     0  0
 22 28  1  0     0  0
 23 25  1  0     0  0
 27 29  1  0     0  0
 28 29  2  0     0  0
 30 39  1  0     0  0
 31 40  1  0     0  0
 32 34  1  0     0  0
 34 41  1  0     0  0
 35 40  1  0     0  0
 36 42  1  0     0  0
 41 42  1  0     0  0
M  END
> <standard_type>
pIC50

> <# Confs.>
25

> <canonical_smiles>
O=C(CC1=CN=C(NC2=NC=NC3=C2C=C(OC)C(OCCCN4[C@H](CO)CCC4)=C3)S1)NC5=CC(N(C)C)=CC=C5

> <standard_relation>
=

> <Publication_ID>
nan

> <predicted_activity_value>
7.638272163982407

> <actual_activity_value>
7.318758762624412

> <Compound>
30

> <standard_units>
nM

> hash
8995224793687527382

$$$$
30_
XXILIB    08252103423D 0   0.00000     0.00000

 42 46  0     1  0            999 V2000
    3.9708   -0.3854    0.6675 S   0  0  0  0  0  2           0  0  0
   -3.0893   -0.1417   -4.6620 O   0  0  0  0  0  2           0  0  0
   -0.1747   -0.2609   -4.8609 O   0  0  0  0  0  2           0  0  0
    5.9311   -3.8856    2.6633 O   0  0  0  0  0  2           0  0  0
   -5.9074    0.0052  -10.5602 O   0  0  0  0  0  2           0  0  0
    1.9304   -1.1709    2.0224 N   0  0  0  0  0  3           0  0  0
   -0.6609    0.0000    1.1846 N   0  0  0  0  0  3           0  0  0
   -2.7580   -0.0529    0.0232 N   0  0  0  0  0  3           0  0  0
    1.4139    0.0000   -0.0000 N   0  0  0  0  0  3           0  0  0
    7.8757   -7.4015   -0.0867 N   0  0  1  0  0  3           0  0  0
    6.7664   -2.7157    0.8359 N   0  0  0  0  0  3           0  0  0
   -6.0915    0.3204   -7.6502 N   0  0  2  0  0  3           0  0  0
    2.2627   -0.5298    0.9177 C   0  0  0  0  0  4           0  0  0
    4.2659   -1.2271    2.1288 C   0  0  0  0  0  4           0  0  0
   -2.2521   -0.1366   -3.5823 C   0  0  0  0  0  4           0  0  0
   -0.8636   -0.1874   -3.6774 C   0  0  0  0  0  4           0  0  0
   -1.9997   -0.0184    1.1284 C   0  0  0  0  0  4           0  0  0
    0.0000   -0.0000    0.0000 C   0  0  0  0  0  4           0  0  0
   -2.1102   -0.0786   -1.1483 C   0  0  0  0  0  4           0  0  0
    3.0614   -1.5655    2.7072 C   0  0  0  0  0  4           0  0  0
    7.8928   -6.0684   -0.4414 C   0  0  0  0  0  4           0  0  0
    7.3375   -3.7156    0.0250 C   0  0  0  0  0  4           0  0  0
   -0.7028   -0.0620   -1.2307 C   0  0  0  0  0  4           0  0  0
   -2.8570   -0.1182   -2.3226 C   0  0  0  0  0  4           0  0  0
   -0.0973   -0.1204   -2.5117 C   0  0  0  0  0  4           0  0  0
    7.3170   -5.0754    0.3795 C   0  0  0  0  0  4           0  0  0
    8.4852   -5.6302   -1.6416 C   0  0  0  0  0  4           0  0  0
    7.9397   -3.3234   -1.1700 C   0  0  0  0  0  4           0  0  0
    8.5092   -4.2798   -2.0021 C   0  0  0  0  0  4           0  0  0
    6.1160   -2.8338    2.0522 C   0  0  0  0  0  4           0  0  0
   -2.9169    0.9418   -5.5758 C   0  0  0  0  0  4           0  0  0
   -5.9158   -1.1200   -9.6889 C   0  0  0  0  0  4           0  0  0
    0.0199   -1.6293   -5.2161 C   0  0  0  0  0  4           0  0  0
   -6.6699   -0.7957   -8.4055 C   0  0  2  0  0  4           0  0  0
   -4.8039    0.0485   -7.0060 C   0  0  0  0  0  4           0  0  0
   -7.1345    0.7367   -6.7121 C   0  0  0  0  0  4           0  0  0
    7.2543   -7.8208    1.1609 C   0  0  0  0  0  4           0  0  0
    8.4451   -8.4044   -0.9742 C   0  0  0  0  0  4           0  0  0
    5.6471   -1.5049    2.5995 C   0  0  0  0  0  4           0  0  0
   -4.2550    1.2520   -6.2349 C   0  0  0  0  0  4           0  0  0
   -8.0960   -0.3047   -8.6763 C   0  0  0  0  0  4           0  0  0
   -8.4019    0.6790   -7.5508 C   0  0  0  0  0  4           0  0  0
  1 13  1  0     0  0
  1 14  1  0     0  0
  2 15  1  0     0  0
  2 31  1  0     0  0
  3 16  1  0     0  0
  3 33  1  0     0  0
  4 30  2  0     0  0
  5 32  1  0     0  0
  6 13  2  0     0  0
  6 20  1  0     0  0
  7 17  1  0     0  0
  7 18  2  0     0  0
  8 17  2  0     0  0
  8 19  1  0     0  0
  9 13  1  0     0  0
  9 18  1  0     0  0
 10 21  1  0     0  0
 10 37  1  0     0  0
 10 38  1  0     0  0
 11 22  1  0     0  0
 11 30  1  0     0  0
 12 34  1  0     0  0
 12 35  1  0     0  0
 12 36  1  0     0  0
 14 20  2  0     0  0
 14 39  1  0     0  0
 15 16  1  0     0  0
 15 24  2  0     0  0
 16 25  2  0     0  0
 18 23  1  0     0  0
 19 23  2  0     0  0
 19 24  1  0     0  0
 21 26  1  0     0  0
 21 27  2  0     0  0
 22 26  2  0     0  0
 22 28  1  0     0  0
 23 25  1  0     0  0
 27 29  1  0     0  0
 28 29  2  0     0  0
 30 39  1  0     0  0
 31 40  1  0     0  0
 32 34  1  0     0  0
 34 41  1  0     0  0
 35 40  1  0     0  0
 36 42  1  0     0  0
 41 42  1  0     0  0
M  END
> <standard_type>
pIC50

> <# Confs.>
25

> <canonical_smiles>
O=C(CC1=CN=C(NC2=NC=NC3=C2C=C(OC)C(OCCCN4[C@H](CO)CCC4)=C3)S1)NC5=CC(N(C)C)=CC=C5

> <standard_relation>
=

> <Publication_ID>
nan

> <predicted_activity_value>
7.638272163982407

> <actual_activity_value>
7.318758762624412

> <Compound>
30

> <standard_units>
nM

> hash
8995224793687527382

$$$$
30_
XXILIB    08252103423D 0   0.00000     0.00000

 42 46  0     1  0            999 V2000
    3.9708   -0.3854    0.6675 S   0  0  0  0  0  2           0  0  0
   -3.0893   -0.1417   -4.6620 O   0  0  0  0  0  2           0  0  0
   -0.1747   -0.2609   -4.8609 O   0  0  0  0  0  2           0  0  0
    5.9311   -3.8856    2.6633 O   0  0  0  0  0  2           0  0  0
   -3.0451   -3.1690   -7.6432 O   0  0  0  0  0  2           0  0  0
    1.9304   -1.1709    2.0224 N   0  0  0  0  0  3           0  0  0
   -0.6609    0.0000    1.1846 N   0  0  0  0  0  3           0  0  0
   -2.7580   -0.0529    0.0232 N   0  0  0  0  0  3           0  0  0
    1.4139    0.0000   -0.0000 N   0  0  0  0  0  3           0  0  0
    7.8757   -7.4015   -0.0867 N   0  0  1  0  0  3           0  0  0
    6.7664   -2.7157    0.8359 N   0  0  0  0  0  3           0  0  0
   -3.9108   -0.4007   -8.0771 N   0  0  2  0  0  3           0  0  0
    2.2627   -0.5298    0.9177 C   0  0  0  0  0  4           0  0  0
    4.2659   -1.2271    2.1288 C   0  0  0  0  0  4           0  0  0
   -2.2521   -0.1366   -3.5823 C   0  0  0  0  0  4           0  0  0
   -0.8636   -0.1874   -3.6774 C   0  0  0  0  0  4           0  0  0
   -1.9997   -0.0184    1.1284 C   0  0  0  0  0  4           0  0  0
    0.0000   -0.0000    0.0000 C   0  0  0  0  0  4           0  0  0
   -2.1102   -0.0786   -1.1483 C   0  0  0  0  0  4           0  0  0
    3.0614   -1.5655    2.7072 C   0  0  0  0  0  4           0  0  0
    7.8928   -6.0684   -0.4414 C   0  0  0  0  0  4           0  0  0
    7.3375   -3.7156    0.0250 C   0  0  0  0  0  4           0  0  0
   -0.7028   -0.0620   -1.2307 C   0  0  0  0  0  4           0  0  0
   -2.8570   -0.1182   -2.3226 C   0  0  0  0  0  4           0  0  0
   -0.0973   -0.1204   -2.5117 C   0  0  0  0  0  4           0  0  0
    7.3170   -5.0754    0.3795 C   0  0  0  0  0  4           0  0  0
    8.4852   -5.6302   -1.6416 C   0  0  0  0  0  4           0  0  0
    7.9397   -3.3234   -1.1700 C   0  0  0  0  0  4           0  0  0
    8.5092   -4.2798   -2.0021 C   0  0  0  0  0  4           0  0  0
    6.1160   -2.8338    2.0522 C   0  0  0  0  0  4           0  0  0
   -2.9169    0.9418   -5.5758 C   0  0  0  0  0  4           0  0  0
   -4.3660   -2.8613   -8.0742 C   0  0  0  0  0  4           0  0  0
    0.0199   -1.6293   -5.2161 C   0  0  0  0  0  4           0  0  0
   -4.3819   -1.5522   -8.8534 C   0  0  2  0  0  4           0  0  0
   -4.8039    0.0485   -7.0060 C   0  0  0  0  0  4           0  0  0
   -3.6173    0.6393   -9.0638 C   0  0  0  0  0  4           0  0  0
    7.2543   -7.8208    1.1609 C   0  0  0  0  0  4           0  0  0
    8.4451   -8.4044   -0.9742 C   0  0  0  0  0  4           0  0  0
    5.6471   -1.5049    2.5995 C   0  0  0  0  0  4           0  0  0
   -4.2550    1.2520   -6.2349 C   0  0  0  0  0  4           0  0  0
   -3.4111   -1.5684  -10.0388 C   0  0  0  0  0  4           0  0  0
   -2.9337   -0.1267  -10.1858 C   0  0  0  0  0  4           0  0  0
  1 13  1  0     0  0
  1 14  1  0     0  0
  2 15  1  0     0  0
  2 31  1  0     0  0
  3 16  1  0     0  0
  3 33  1  0     0  0
  4 30  2  0     0  0
  5 32  1  0     0  0
  6 13  2  0     0  0
  6 20  1  0     0  0
  7 17  1  0     0  0
  7 18  2  0     0  0
  8 17  2  0     0  0
  8 19  1  0     0  0
  9 13  1  0     0  0
  9 18  1  0     0  0
 10 21  1  0     0  0
 10 37  1  0     0  0
 10 38  1  0     0  0
 11 22  1  0     0  0
 11 30  1  0     0  0
 12 34  1  0     0  0
 12 35  1  0     0  0
 12 36  1  0     0  0
 14 20  2  0     0  0
 14 39  1  0     0  0
 15 16  1  0     0  0
 15 24  2  0     0  0
 16 25  2  0     0  0
 18 23  1  0     0  0
 19 23  2  0     0  0
 19 24  1  0     0  0
 21 26  1  0     0  0
 21 27  2  0     0  0
 22 26  2  0     0  0
 22 28  1  0     0  0
 23 25  1  0     0  0
 27 29  1  0     0  0
 28 29  2  0     0  0
 30 39  1  0     0  0
 31 40  1  0     0  0
 32 34  1  0     0  0
 34 41  1  0     0  0
 35 40  1  0     0  0
 36 42  1  0     0  0
 41 42  1  0     0  0
M  END
> <standard_type>
pIC50

> <# Confs.>
25

> <canonical_smiles>
O=C(CC1=CN=C(NC2=NC=NC3=C2C=C(OC)C(OCCCN4[C@H](CO)CCC4)=C3)S1)NC5=CC(N(C)C)=CC=C5

> <standard_relation>
=

> <Publication_ID>
nan

> <predicted_activity_value>
7.638272163982407

> <actual_activity_value>
7.318758762624412

> <Compound>
30

> <standard_units>
nM

> hash
8995224793687527382

$$$$
30_
XXILIB    08252103423D 0   0.00000     0.00000

 42 46  0     1  0            999 V2000
    3.9708   -0.3854    0.6675 S   0  0  0  0  0  2           0  0  0
   -3.0893   -0.1417   -4.6620 O   0  0  0  0  0  2           0  0  0
   -0.1747   -0.2609   -4.8609 O   0  0  0  0  0  2           0  0  0
    5.5217   -3.2499    4.2402 O   0  0  0  0  0  2           0  0  0
   -1.1569    4.9041   -7.4604 O   0  0  0  0  0  2           0  0  0
    1.9304   -1.1709    2.0224 N   0  0  0  0  0  3           0  0  0
   -0.6609   -0.0000    1.1846 N   0  0  0  0  0  3           0  0  0
   -2.7580   -0.0529    0.0232 N   0  0  0  0  0  3           0  0  0
    1.4139   -0.0000   -0.0000 N   0  0  0  0  0  3           0  0  0
    6.1795   -8.0671    4.4982 N   0  0  1  0  0  3           0  0  0
    6.1270   -3.8102    2.0663 N   0  0  0  0  0  3           0  0  0
   -3.6915    3.6568   -6.6129 N   0  0  2  0  0  3           0  0  0
    2.2627   -0.5298    0.9177 C   0  0  0  0  0  4           0  0  0
    4.2659   -1.2271    2.1288 C   0  0  0  0  0  4           0  0  0
   -2.2521   -0.1366   -3.5823 C   0  0  0  0  0  4           0  0  0
   -0.8636   -0.1874   -3.6774 C   0  0  0  0  0  4           0  0  0
   -1.9997   -0.0184    1.1284 C   0  0  0  0  0  4           0  0  0
    0.0000    0.0000    0.0000 C   0  0  0  0  0  4           0  0  0
   -2.1102   -0.0786   -1.1483 C   0  0  0  0  0  4           0  0  0
    3.0614   -1.5655    2.7072 C   0  0  0  0  0  4           0  0  0
    6.3492   -7.3426    3.3365 C   0  0  0  0  0  4           0  0  0
    6.3252   -5.2036    2.1177 C   0  0  0  0  0  4           0  0  0
   -0.7028   -0.0620   -1.2307 C   0  0  0  0  0  4           0  0  0
   -2.8570   -0.1182   -2.3226 C   0  0  0  0  0  4           0  0  0
   -0.0973   -0.1204   -2.5117 C   0  0  0  0  0  4           0  0  0
    6.1476   -5.9464    3.2974 C   0  0  0  0  0  4           0  0  0
    6.7317   -7.9595    2.1296 C   0  0  0  0  0  4           0  0  0
    6.7102   -5.8528    0.9452 C   0  0  0  0  0  4           0  0  0
    6.9098   -7.2282    0.9516 C   0  0  0  0  0  4           0  0  0
    5.7477   -2.9374    3.0717 C   0  0  0  0  0  4           0  0  0
   -2.9169    0.9418   -5.5758 C   0  0  0  0  0  4           0  0  0
   -2.2738    4.8210   -8.3383 C   0  0  0  0  0  4           0  0  0
    0.0199   -1.6293   -5.2161 C   0  0  0  0  0  4           0  0  0
   -3.5747    4.7933   -7.5459 C   0  0  2  0  0  4           0  0  0
   -4.1455    2.4089   -7.2319 C   0  0  0  0  0  4           0  0  0
   -4.6575    4.1007   -5.5990 C   0  0  0  0  0  4           0  0  0
    5.7827   -7.3984    5.7285 C   0  0  0  0  0  4           0  0  0
    6.3588   -9.5114    4.4952 C   0  0  0  0  0  4           0  0  0
    5.6471   -1.5049    2.5995 C   0  0  0  0  0  4           0  0  0
   -4.2550    1.2520   -6.2349 C   0  0  0  0  0  4           0  0  0
   -3.7021    6.0339   -6.6431 C   0  0  0  0  0  4           0  0  0
   -4.2110    5.5171   -5.3065 C   0  0  0  0  0  4           0  0  0
  1 13  1  0     0  0
  1 14  1  0     0  0
  2 15  1  0     0  0
  2 31  1  0     0  0
  3 16  1  0     0  0
  3 33  1  0     0  0
  4 30  2  0     0  0
  5 32  1  0     0  0
  6 13  2  0     0  0
  6 20  1  0     0  0
  7 17  1  0     0  0
  7 18  2  0     0  0
  8 17  2  0     0  0
  8 19  1  0     0  0
  9 13  1  0     0  0
  9 18  1  0     0  0
 10 21  1  0     0  0
 10 37  1  0     0  0
 10 38  1  0     0  0
 11 22  1  0     0  0
 11 30  1  0     0  0
 12 34  1  0     0  0
 12 35  1  0     0  0
 12 36  1  0     0  0
 14 20  2  0     0  0
 14 39  1  0     0  0
 15 16  1  0     0  0
 15 24  2  0     0  0
 16 25  2  0     0  0
 18 23  1  0     0  0
 19 23  2  0     0  0
 19 24  1  0     0  0
 21 26  1  0     0  0
 21 27  2  0     0  0
 22 26  2  0     0  0
 22 28  1  0     0  0
 23 25  1  0     0  0
 27 29  1  0     0  0
 28 29  2  0     0  0
 30 39  1  0     0  0
 31 40  1  0     0  0
 32 34  1  0     0  0
 34 41  1  0     0  0
 35 40  1  0     0  0
 36 42  1  0     0  0
 41 42  1  0     0  0
M  END
> <standard_type>
pIC50

> <# Confs.>
25

> <canonical_smiles>
O=C(CC1=CN=C(NC2=NC=NC3=C2C=C(OC)C(OCCCN4[C@H](CO)CCC4)=C3)S1)NC5=CC(N(C)C)=CC=C5

> <standard_relation>
=

> <Publication_ID>
nan

> <predicted_activity_value>
7.638272163982407

> <actual_activity_value>
7.318758762624412

> <Compound>
30

> <standard_units>
nM

> hash
8995224793687527382

$$$$
30_
XXILIB    08252103423D 0   0.00000     0.00000

 42 46  0     1  0            999 V2000
    3.9708   -0.3854    0.6675 S   0  0  0  0  0  2           0  0  0
   -3.0893   -0.1417   -4.6620 O   0  0  0  0  0  2           0  0  0
   -0.1747   -0.2609   -4.8609 O   0  0  0  0  0  2           0  0  0
    5.5279   -2.0440    4.9336 O   0  0  0  0  0  2           0  0  0
   -1.1569    4.9041   -7.4604 O   0  0  0  0  0  2           0  0  0
    1.9304   -1.1709    2.0224 N   0  0  0  0  0  3           0  0  0
   -0.6609   -0.0000    1.1846 N   0  0  0  0  0  3           0  0  0
   -2.7580   -0.0529    0.0232 N   0  0  0  0  0  3           0  0  0
    1.4139    0.0000    0.0000 N   0  0  0  0  0  3           0  0  0
    6.2038    0.1563    9.2238 N   0  0  1  0  0  3           0  0  0
    6.1159    0.1208    4.3219 N   0  0  0  0  0  3           0  0  0
   -3.6915    3.6568   -6.6129 N   0  0  2  0  0  3           0  0  0
    2.2627   -0.5298    0.9177 C   0  0  0  0  0  4           0  0  0
    4.2659   -1.2271    2.1288 C   0  0  0  0  0  4           0  0  0
   -2.2521   -0.1366   -3.5823 C   0  0  0  0  0  4           0  0  0
   -0.8636   -0.1874   -3.6774 C   0  0  0  0  0  4           0  0  0
   -1.9997   -0.0184    1.1284 C   0  0  0  0  0  4           0  0  0
    0.0000    0.0000    0.0000 C   0  0  0  0  0  4           0  0  0
   -2.1102   -0.0786   -1.1483 C   0  0  0  0  0  4           0  0  0
    3.0614   -1.5655    2.7072 C   0  0  0  0  0  4           0  0  0
    6.3624    0.7975    8.0127 C   0  0  0  0  0  4           0  0  0
    6.3148    0.7786    5.5512 C   0  0  0  0  0  4           0  0  0
   -0.7028   -0.0620   -1.2307 C   0  0  0  0  0  4           0  0  0
   -2.8570   -0.1182   -2.3226 C   0  0  0  0  0  4           0  0  0
   -0.0973   -0.1204   -2.5117 C   0  0  0  0  0  4           0  0  0
    6.1603    0.1277    6.7871 C   0  0  0  0  0  4           0  0  0
    6.7349    2.1537    7.9373 C   0  0  0  0  0  4           0  0  0
    6.6792    2.1242    5.5212 C   0  0  0  0  0  4           0  0  0
    6.8915    2.8084    6.7121 C   0  0  0  0  0  4           0  0  0
    5.7567   -1.1932    4.0746 C   0  0  0  0  0  4           0  0  0
   -2.9169    0.9418   -5.5758 C   0  0  0  0  0  4           0  0  0
   -2.2738    4.8210   -8.3383 C   0  0  0  0  0  4           0  0  0
    0.0199   -1.6293   -5.2161 C   0  0  0  0  0  4           0  0  0
   -3.5747    4.7933   -7.5459 C   0  0  2  0  0  4           0  0  0
   -4.1455    2.4089   -7.2319 C   0  0  0  0  0  4           0  0  0
   -4.6575    4.1007   -5.5990 C   0  0  0  0  0  4           0  0  0
    5.8186   -1.2466    9.2663 C   0  0  0  0  0  4           0  0  0
    6.4568    0.8663   10.4688 C   0  0  0  0  0  4           0  0  0
    5.6471   -1.5049    2.5995 C   0  0  0  0  0  4           0  0  0
   -4.2550    1.2520   -6.2349 C   0  0  0  0  0  4           0  0  0
   -3.7021    6.0339   -6.6431 C   0  0  0  0  0  4           0  0  0
   -4.2110    5.5171   -5.3065 C   0  0  0  0  0  4           0  0  0
  1 13  1  0     0  0
  1 14  1  0     0  0
  2 15  1  0     0  0
  2 31  1  0     0  0
  3 16  1  0     0  0
  3 33  1  0     0  0
  4 30  2  0     0  0
  5 32  1  0     0  0
  6 13  2  0     0  0
  6 20  1  0     0  0
  7 17  1  0     0  0
  7 18  2  0     0  0
  8 17  2  0     0  0
  8 19  1  0     0  0
  9 13  1  0     0  0
  9 18  1  0     0  0
 10 21  1  0     0  0
 10 37  1  0     0  0
 10 38  1  0     0  0
 11 22  1  0     0  0
 11 30  1  0     0  0
 12 34  1  0     0  0
 12 35  1  0     0  0
 12 36  1  0     0  0
 14 20  2  0     0  0
 14 39  1  0     0  0
 15 16  1  0     0  0
 15 24  2  0     0  0
 16 25  2  0     0  0
 18 23  1  0     0  0
 19 23  2  0     0  0
 19 24  1  0     0  0
 21 26  1  0     0  0
 21 27  2  0     0  0
 22 26  2  0     0  0
 22 28  1  0     0  0
 23 25  1  0     0  0
 27 29  1  0     0  0
 28 29  2  0     0  0
 30 39  1  0     0  0
 31 40  1  0     0  0
 32 34  1  0     0  0
 34 41  1  0     0  0
 35 40  1  0     0  0
 36 42  1  0     0  0
 41 42  1  0     0  0
M  END
> <standard_type>
pIC50

> <# Confs.>
25

> <canonical_smiles>
O=C(CC1=CN=C(NC2=NC=NC3=C2C=C(OC)C(OCCCN4[C@H](CO)CCC4)=C3)S1)NC5=CC(N(C)C)=CC=C5

> <standard_relation>
=

> <Publication_ID>
nan

> <predicted_activity_value>
7.638272163982407

> <actual_activity_value>
7.318758762624412

> <Compound>
30

> <standard_units>
nM

> hash
8995224793687527382

$$$$
30_
XXILIB    08252103423D 0   0.00000     0.00000

 42 46  0     1  0            999 V2000
    3.9708   -0.3854    0.6675 S   0  0  0  0  0  2           0  0  0
   -3.0893   -0.1417   -4.6620 O   0  0  0  0  0  2           0  0  0
   -0.1747   -0.2609   -4.8609 O   0  0  0  0  0  2           0  0  0
    5.9493   -0.3646    4.6879 O   0  0  0  0  0  2           0  0  0
   -1.1569    4.9041   -7.4604 O   0  0  0  0  0  2           0  0  0
    1.9304   -1.1709    2.0224 N   0  0  0  0  0  3           0  0  0
   -0.6609   -0.0000    1.1846 N   0  0  0  0  0  3           0  0  0
   -2.7580   -0.0529    0.0232 N   0  0  0  0  0  3           0  0  0
    1.4139    0.0000    0.0000 N   0  0  0  0  0  3           0  0  0
    7.9168    3.7744    6.3318 N   0  0  1  0  0  3           0  0  0
    6.7551    0.6350    2.7494 N   0  0  0  0  0  3           0  0  0
   -3.6915    3.6568   -6.6129 N   0  0  2  0  0  3           0  0  0
    2.2627   -0.5298    0.9177 C   0  0  0  0  0  4           0  0  0
    4.2659   -1.2271    2.1288 C   0  0  0  0  0  4           0  0  0
   -2.2521   -0.1366   -3.5823 C   0  0  0  0  0  4           0  0  0
   -0.8636   -0.1874   -3.6774 C   0  0  0  0  0  4           0  0  0
   -1.9997   -0.0184    1.1284 C   0  0  0  0  0  4           0  0  0
    0.0000    0.0000    0.0000 C   0  0  0  0  0  4           0  0  0
   -2.1102   -0.0786   -1.1483 C   0  0  0  0  0  4           0  0  0
    3.0614   -1.5655    2.7072 C   0  0  0  0  0  4           0  0  0
    7.9155    3.4154    4.9998 C   0  0  0  0  0  4           0  0  0
    7.3286    1.8391    3.2018 C   0  0  0  0  0  4           0  0  0
   -0.7028   -0.0620   -1.2307 C   0  0  0  0  0  4           0  0  0
   -2.8570   -0.1182   -2.3226 C   0  0  0  0  0  4           0  0  0
   -0.0973   -0.1204   -2.5117 C   0  0  0  0  0  4           0  0  0
    7.3376    2.2059    4.5584 C   0  0  0  0  0  4           0  0  0
    8.4916    4.2375    4.0119 C   0  0  0  0  0  4           0  0  0
    7.9050    2.6850    2.2548 C   0  0  0  0  0  4           0  0  0
    8.4876    3.8798    2.6605 C   0  0  0  0  0  4           0  0  0
    6.1287   -0.3671    3.4706 C   0  0  0  0  0  4           0  0  0
   -2.9169    0.9418   -5.5758 C   0  0  0  0  0  4           0  0  0
   -2.2738    4.8210   -8.3383 C   0  0  0  0  0  4           0  0  0
    0.0199   -1.6293   -5.2161 C   0  0  0  0  0  4           0  0  0
   -3.5747    4.7933   -7.5459 C   0  0  2  0  0  4           0  0  0
   -4.1455    2.4089   -7.2319 C   0  0  0  0  0  4           0  0  0
   -4.6575    4.1007   -5.5990 C   0  0  0  0  0  4           0  0  0
    7.3133    2.9011    7.3276 C   0  0  0  0  0  4           0  0  0
    8.5548    5.0110    6.7579 C   0  0  0  0  0  4           0  0  0
    5.6471   -1.5049    2.5995 C   0  0  0  0  0  4           0  0  0
   -4.2550    1.2520   -6.2349 C   0  0  0  0  0  4           0  0  0
   -3.7021    6.0339   -6.6431 C   0  0  0  0  0  4           0  0  0
   -4.2110    5.5171   -5.3065 C   0  0  0  0  0  4           0  0  0
  1 13  1  0     0  0
  1 14  1  0     0  0
  2 15  1  0     0  0
  2 31  1  0     0  0
  3 16  1  0     0  0
  3 33  1  0     0  0
  4 30  2  0     0  0
  5 32  1  0     0  0
  6 13  2  0     0  0
  6 20  1  0     0  0
  7 17  1  0     0  0
  7 18  2  0     0  0
  8 17  2  0     0  0
  8 19  1  0     0  0
  9 13  1  0     0  0
  9 18  1  0     0  0
 10 21  1  0     0  0
 10 37  1  0     0  0
 10 38  1  0     0  0
 11 22  1  0     0  0
 11 30  1  0     0  0
 12 34  1  0     0  0
 12 35  1  0     0  0
 12 36  1  0     0  0
 14 20  2  0     0  0
 14 39  1  0     0  0
 15 16  1  0     0  0
 15 24  2  0     0  0
 16 25  2  0     0  0
 18 23  1  0     0  0
 19 23  2  0     0  0
 19 24  1  0     0  0
 21 26  1  0     0  0
 21 27  2  0     0  0
 22 26  2  0     0  0
 22 28  1  0     0  0
 23 25  1  0     0  0
 27 29  1  0     0  0
 28 29  2  0     0  0
 30 39  1  0     0  0
 31 40  1  0     0  0
 32 34  1  0     0  0
 34 41  1  0     0  0
 35 40  1  0     0  0
 36 42  1  0     0  0
 41 42  1  0     0  0
M  END
> <standard_type>
pIC50

> <# Confs.>
25

> <canonical_smiles>
O=C(CC1=CN=C(NC2=NC=NC3=C2C=C(OC)C(OCCCN4[C@H](CO)CCC4)=C3)S1)NC5=CC(N(C)C)=CC=C5

> <standard_relation>
=

> <Publication_ID>
nan

> <predicted_activity_value>
7.638272163982407

> <actual_activity_value>
7.318758762624412

> <Compound>
30

> <standard_units>
nM

> hash
8995224793687527382

$$$$
30_
XXILIB    08252103423D 0   0.00000     0.00000

 42 46  0     1  0            999 V2000
    3.9708   -0.3854    0.6675 S   0  0  0  0  0  2           0  0  0
   -3.0893   -0.1417   -4.6620 O   0  0  0  0  0  2           0  0  0
   -0.1747   -0.2609   -4.8609 O   0  0  0  0  0  2           0  0  0
    5.5217   -3.2499    4.2402 O   0  0  0  0  0  2           0  0  0
   -3.0451   -3.1690   -7.6432 O   0  0  0  0  0  2           0  0  0
    1.9304   -1.1709    2.0224 N   0  0  0  0  0  3           0  0  0
   -0.6609    0.0000    1.1846 N   0  0  0  0  0  3           0  0  0
   -2.7580   -0.0529    0.0232 N   0  0  0  0  0  3           0  0  0
    1.4139   -0.0000   -0.0000 N   0  0  0  0  0  3           0  0  0
    6.1795   -8.0671    4.4982 N   0  0  1  0  0  3           0  0  0
    6.1270   -3.8102    2.0663 N   0  0  0  0  0  3           0  0  0
   -3.9108   -0.4007   -8.0771 N   0  0  2  0  0  3           0  0  0
    2.2627   -0.5298    0.9177 C   0  0  0  0  0  4           0  0  0
    4.2659   -1.2271    2.1288 C   0  0  0  0  0  4           0  0  0
   -2.2521   -0.1366   -3.5823 C   0  0  0  0  0  4           0  0  0
   -0.8636   -0.1874   -3.6774 C   0  0  0  0  0  4           0  0  0
   -1.9997   -0.0184    1.1284 C   0  0  0  0  0  4           0  0  0
    0.0000   -0.0000    0.0000 C   0  0  0  0  0  4           0  0  0
   -2.1102   -0.0786   -1.1483 C   0  0  0  0  0  4           0  0  0
    3.0614   -1.5655    2.7072 C   0  0  0  0  0  4           0  0  0
    6.3492   -7.3426    3.3365 C   0  0  0  0  0  4           0  0  0
    6.3252   -5.2036    2.1177 C   0  0  0  0  0  4           0  0  0
   -0.7028   -0.0620   -1.2307 C   0  0  0  0  0  4           0  0  0
   -2.8570   -0.1182   -2.3226 C   0  0  0  0  0  4           0  0  0
   -0.0973   -0.1204   -2.5117 C   0  0  0  0  0  4           0  0  0
    6.1476   -5.9464    3.2974 C   0  0  0  0  0  4           0  0  0
    6.7317   -7.9595    2.1296 C   0  0  0  0  0  4           0  0  0
    6.7102   -5.8528    0.9452 C   0  0  0  0  0  4           0  0  0
    6.9098   -7.2282    0.9516 C   0  0  0  0  0  4           0  0  0
    5.7477   -2.9374    3.0717 C   0  0  0  0  0  4           0  0  0
   -2.9169    0.9418   -5.5758 C   0  0  0  0  0  4           0  0  0
   -4.3660   -2.8613   -8.0742 C   0  0  0  0  0  4           0  0  0
    0.0199   -1.6293   -5.2161 C   0  0  0  0  0  4           0  0  0
   -4.3819   -1.5522   -8.8534 C   0  0  2  0  0  4           0  0  0
   -4.8039    0.0485   -7.0060 C   0  0  0  0  0  4           0  0  0
   -3.6173    0.6393   -9.0638 C   0  0  0  0  0  4           0  0  0
    5.7827   -7.3984    5.7285 C   0  0  0  0  0  4           0  0  0
    6.3588   -9.5114    4.4952 C   0  0  0  0  0  4           0  0  0
    5.6471   -1.5049    2.5995 C   0  0  0  0  0  4           0  0  0
   -4.2550    1.2520   -6.2349 C   0  0  0  0  0  4           0  0  0
   -3.4111   -1.5684  -10.0388 C   0  0  0  0  0  4           0  0  0
   -2.9337   -0.1267  -10.1858 C   0  0  0  0  0  4           0  0  0
  1 13  1  0     0  0
  1 14  1  0     0  0
  2 15  1  0     0  0
  2 31  1  0     0  0
  3 16  1  0     0  0
  3 33  1  0     0  0
  4 30  2  0     0  0
  5 32  1  0     0  0
  6 13  2  0     0  0
  6 20  1  0     0  0
  7 17  1  0     0  0
  7 18  2  0     0  0
  8 17  2  0     0  0
  8 19  1  0     0  0
  9 13  1  0     0  0
  9 18  1  0     0  0
 10 21  1  0     0  0
 10 37  1  0     0  0
 10 38  1  0     0  0
 11 22  1  0     0  0
 11 30  1  0     0  0
 12 34  1  0     0  0
 12 35  1  0     0  0
 12 36  1  0     0  0
 14 20  2  0     0  0
 14 39  1  0     0  0
 15 16  1  0     0  0
 15 24  2  0     0  0
 16 25  2  0     0  0
 18 23  1  0     0  0
 19 23  2  0     0  0
 19 24  1  0     0  0
 21 26  1  0     0  0
 21 27  2  0     0  0
 22 26  2  0     0  0
 22 28  1  0     0  0
 23 25  1  0     0  0
 27 29  1  0     0  0
 28 29  2  0     0  0
 30 39  1  0     0  0
 31 40  1  0     0  0
 32 34  1  0     0  0
 34 41  1  0     0  0
 35 40  1  0     0  0
 36 42  1  0     0  0
 41 42  1  0     0  0
M  END
> <standard_type>
pIC50

> <# Confs.>
25

> <canonical_smiles>
O=C(CC1=CN=C(NC2=NC=NC3=C2C=C(OC)C(OCCCN4[C@H](CO)CCC4)=C3)S1)NC5=CC(N(C)C)=CC=C5

> <standard_relation>
=

> <Publication_ID>
nan

> <predicted_activity_value>
7.638272163982407

> <actual_activity_value>
7.318758762624412

> <Compound>
30

> <standard_units>
nM

> hash
8995224793687527382

$$$$
30_
XXILIB    08252103423D 0   0.00000     0.00000

 42 46  0     1  0            999 V2000
    3.9708   -0.3854    0.6675 S   0  0  0  0  0  2           0  0  0
   -3.0893   -0.1417   -4.6620 O   0  0  0  0  0  2           0  0  0
   -0.1747   -0.2609   -4.8609 O   0  0  0  0  0  2           0  0  0
    5.9311   -3.8856    2.6633 O   0  0  0  0  0  2           0  0  0
   -8.7013    0.1418   -4.8239 O   0  0  0  0  0  2           0  0  0
    1.9304   -1.1709    2.0224 N   0  0  0  0  0  3           0  0  0
   -0.6609    0.0000    1.1846 N   0  0  0  0  0  3           0  0  0
   -2.7580   -0.0529    0.0232 N   0  0  0  0  0  3           0  0  0
    1.4139    0.0000   -0.0000 N   0  0  0  0  0  3           0  0  0
    7.8757   -7.4015   -0.0867 N   0  0  1  0  0  3           0  0  0
    6.7664   -2.7157    0.8359 N   0  0  0  0  0  3           0  0  0
   -6.6171    1.9510   -5.8158 N   0  0  2  0  0  3           0  0  0
    2.2627   -0.5298    0.9177 C   0  0  0  0  0  4           0  0  0
    4.2659   -1.2271    2.1288 C   0  0  0  0  0  4           0  0  0
   -2.2521   -0.1366   -3.5823 C   0  0  0  0  0  4           0  0  0
   -0.8636   -0.1874   -3.6774 C   0  0  0  0  0  4           0  0  0
   -1.9997   -0.0184    1.1284 C   0  0  0  0  0  4           0  0  0
    0.0000    0.0000    0.0000 C   0  0  0  0  0  4           0  0  0
   -2.1102   -0.0786   -1.1483 C   0  0  0  0  0  4           0  0  0
    3.0614   -1.5655    2.7072 C   0  0  0  0  0  4           0  0  0
    7.8928   -6.0684   -0.4414 C   0  0  0  0  0  4           0  0  0
    7.3375   -3.7156    0.0250 C   0  0  0  0  0  4           0  0  0
   -0.7028   -0.0620   -1.2307 C   0  0  0  0  0  4           0  0  0
   -2.8570   -0.1182   -2.3226 C   0  0  0  0  0  4           0  0  0
   -0.0973   -0.1204   -2.5117 C   0  0  0  0  0  4           0  0  0
    7.3170   -5.0754    0.3795 C   0  0  0  0  0  4           0  0  0
    8.4852   -5.6302   -1.6416 C   0  0  0  0  0  4           0  0  0
    7.9397   -3.3234   -1.1700 C   0  0  0  0  0  4           0  0  0
    8.5092   -4.2798   -2.0021 C   0  0  0  0  0  4           0  0  0
    6.1160   -2.8338    2.0522 C   0  0  0  0  0  4           0  0  0
   -2.9169    0.9418   -5.5758 C   0  0  0  0  0  4           0  0  0
   -8.1764    1.1874   -4.0138 C   0  0  0  0  0  4           0  0  0
    0.0199   -1.6293   -5.2161 C   0  0  0  0  0  4           0  0  0
   -7.6796    2.3368   -4.8816 C   0  0  2  0  0  4           0  0  0
   -5.3193    1.6472   -5.2075 C   0  0  0  0  0  4           0  0  0
   -6.5580    3.0289   -6.8037 C   0  0  0  0  0  4           0  0  0
    7.2543   -7.8208    1.1609 C   0  0  0  0  0  4           0  0  0
    8.4451   -8.4044   -0.9742 C   0  0  0  0  0  4           0  0  0
    5.6471   -1.5049    2.5995 C   0  0  0  0  0  4           0  0  0
   -4.2550    1.2520   -6.2349 C   0  0  0  0  0  4           0  0  0
   -8.7665    2.8684   -5.8219 C   0  0  0  0  0  4           0  0  0
   -8.0229    3.3418   -7.0673 C   0  0  0  0  0  4           0  0  0
  1 13  1  0     0  0
  1 14  1  0     0  0
  2 15  1  0     0  0
  2 31  1  0     0  0
  3 16  1  0     0  0
  3 33  1  0     0  0
  4 30  2  0     0  0
  5 32  1  0     0  0
  6 13  2  0     0  0
  6 20  1  0     0  0
  7 17  1  0     0  0
  7 18  2  0     0  0
  8 17  2  0     0  0
  8 19  1  0     0  0
  9 13  1  0     0  0
  9 18  1  0     0  0
 10 21  1  0     0  0
 10 37  1  0     0  0
 10 38  1  0     0  0
 11 22  1  0     0  0
 11 30  1  0     0  0
 12 34  1  0     0  0
 12 35  1  0     0  0
 12 36  1  0     0  0
 14 20  2  0     0  0
 14 39  1  0     0  0
 15 16  1  0     0  0
 15 24  2  0     0  0
 16 25  2  0     0  0
 18 23  1  0     0  0
 19 23  2  0     0  0
 19 24  1  0     0  0
 21 26  1  0     0  0
 21 27  2  0     0  0
 22 26  2  0     0  0
 22 28  1  0     0  0
 23 25  1  0     0  0
 27 29  1  0     0  0
 28 29  2  0     0  0
 30 39  1  0     0  0
 31 40  1  0     0  0
 32 34  1  0     0  0
 34 41  1  0     0  0
 35 40  1  0     0  0
 36 42  1  0     0  0
 41 42  1  0     0  0
M  END
> <standard_type>
pIC50

> <# Confs.>
25

> <canonical_smiles>
O=C(CC1=CN=C(NC2=NC=NC3=C2C=C(OC)C(OCCCN4[C@H](CO)CCC4)=C3)S1)NC5=CC(N(C)C)=CC=C5

> <standard_relation>
=

> <Publication_ID>
nan

> <predicted_activity_value>
7.638272163982407

> <actual_activity_value>
7.318758762624412

> <Compound>
30

> <standard_units>
nM

> hash
8995224793687527382

$$$$
30_
XXILIB    08252103423D 0   0.00000     0.00000

 42 46  0     1  0            999 V2000
    3.9708   -0.3854    0.6675 S   0  0  0  0  0  2           0  0  0
   -3.0893   -0.1417   -4.6620 O   0  0  0  0  0  2           0  0  0
   -0.1747   -0.2609   -4.8609 O   0  0  0  0  0  2           0  0  0
    5.5217   -3.2499    4.2402 O   0  0  0  0  0  2           0  0  0
   -5.9074    0.0052  -10.5602 O   0  0  0  0  0  2           0  0  0
    1.9304   -1.1709    2.0224 N   0  0  0  0  0  3           0  0  0
   -0.6609    0.0000    1.1846 N   0  0  0  0  0  3           0  0  0
   -2.7580   -0.0529    0.0232 N   0  0  0  0  0  3           0  0  0
    1.4139   -0.0000   -0.0000 N   0  0  0  0  0  3           0  0  0
    6.1795   -8.0671    4.4982 N   0  0  1  0  0  3           0  0  0
    6.1270   -3.8102    2.0663 N   0  0  0  0  0  3           0  0  0
   -6.0915    0.3204   -7.6502 N   0  0  2  0  0  3           0  0  0
    2.2627   -0.5298    0.9177 C   0  0  0  0  0  4           0  0  0
    4.2659   -1.2271    2.1288 C   0  0  0  0  0  4           0  0  0
   -2.2521   -0.1366   -3.5823 C   0  0  0  0  0  4           0  0  0
   -0.8636   -0.1874   -3.6774 C   0  0  0  0  0  4           0  0  0
   -1.9997   -0.0184    1.1284 C   0  0  0  0  0  4           0  0  0
    0.0000   -0.0000    0.0000 C   0  0  0  0  0  4           0  0  0
   -2.1102   -0.0786   -1.1483 C   0  0  0  0  0  4           0  0  0
    3.0614   -1.5655    2.7072 C   0  0  0  0  0  4           0  0  0
    6.3492   -7.3426    3.3365 C   0  0  0  0  0  4           0  0  0
    6.3252   -5.2036    2.1177 C   0  0  0  0  0  4           0  0  0
   -0.7028   -0.0620   -1.2307 C   0  0  0  0  0  4           0  0  0
   -2.8570   -0.1182   -2.3226 C   0  0  0  0  0  4           0  0  0
   -0.0973   -0.1204   -2.5117 C   0  0  0  0  0  4           0  0  0
    6.1476   -5.9464    3.2974 C   0  0  0  0  0  4           0  0  0
    6.7317   -7.9595    2.1296 C   0  0  0  0  0  4           0  0  0
    6.7102   -5.8528    0.9452 C   0  0  0  0  0  4           0  0  0
    6.9098   -7.2282    0.9516 C   0  0  0  0  0  4           0  0  0
    5.7477   -2.9374    3.0717 C   0  0  0  0  0  4           0  0  0
   -2.9169    0.9418   -5.5758 C   0  0  0  0  0  4           0  0  0
   -5.9158   -1.1200   -9.6889 C   0  0  0  0  0  4           0  0  0
    0.0199   -1.6293   -5.2161 C   0  0  0  0  0  4           0  0  0
   -6.6699   -0.7957   -8.4055 C   0  0  2  0  0  4           0  0  0
   -4.8039    0.0485   -7.0060 C   0  0  0  0  0  4           0  0  0
   -7.1345    0.7367   -6.7121 C   0  0  0  0  0  4           0  0  0
    5.7827   -7.3984    5.7285 C   0  0  0  0  0  4           0  0  0
    6.3588   -9.5114    4.4952 C   0  0  0  0  0  4           0  0  0
    5.6471   -1.5049    2.5995 C   0  0  0  0  0  4           0  0  0
   -4.2550    1.2520   -6.2349 C   0  0  0  0  0  4           0  0  0
   -8.0960   -0.3047   -8.6763 C   0  0  0  0  0  4           0  0  0
   -8.4019    0.6790   -7.5508 C   0  0  0  0  0  4           0  0  0
  1 13  1  0     0  0
  1 14  1  0     0  0
  2 15  1  0     0  0
  2 31  1  0     0  0
  3 16  1  0     0  0
  3 33  1  0     0  0
  4 30  2  0     0  0
  5 32  1  0     0  0
  6 13  2  0     0  0
  6 20  1  0     0  0
  7 17  1  0     0  0
  7 18  2  0     0  0
  8 17  2  0     0  0
  8 19  1  0     0  0
  9 13  1  0     0  0
  9 18  1  0     0  0
 10 21  1  0     0  0
 10 37  1  0     0  0
 10 38  1  0     0  0
 11 22  1  0     0  0
 11 30  1  0     0  0
 12 34  1  0     0  0
 12 35  1  0     0  0
 12 36  1  0     0  0
 14 20  2  0     0  0
 14 39  1  0     0  0
 15 16  1  0     0  0
 15 24  2  0     0  0
 16 25  2  0     0  0
 18 23  1  0     0  0
 19 23  2  0     0  0
 19 24  1  0     0  0
 21 26  1  0     0  0
 21 27  2  0     0  0
 22 26  2  0     0  0
 22 28  1  0     0  0
 23 25  1  0     0  0
 27 29  1  0     0  0
 28 29  2  0     0  0
 30 39  1  0     0  0
 31 40  1  0     0  0
 32 34  1  0     0  0
 34 41  1  0     0  0
 35 40  1  0     0  0
 36 42  1  0     0  0
 41 42  1  0     0  0
M  END
> <standard_type>
pIC50

> <# Confs.>
25

> <canonical_smiles>
O=C(CC1=CN=C(NC2=NC=NC3=C2C=C(OC)C(OCCCN4[C@H](CO)CCC4)=C3)S1)NC5=CC(N(C)C)=CC=C5

> <standard_relation>
=

> <Publication_ID>
nan

> <predicted_activity_value>
7.638272163982407

> <actual_activity_value>
7.318758762624412

> <Compound>
30

> <standard_units>
nM

> hash
8995224793687527382

$$$$
30_
XXILIB    08252103423D 0   0.00000     0.00000

 42 46  0     1  0            999 V2000
    3.9708   -0.3854    0.6675 S   0  0  0  0  0  2           0  0  0
   -3.0893   -0.1417   -4.6620 O   0  0  0  0  0  2           0  0  0
   -0.1747   -0.2609   -4.8609 O   0  0  0  0  0  2           0  0  0
    5.5279   -2.0440    4.9336 O   0  0  0  0  0  2           0  0  0
   -3.0451   -3.1690   -7.6432 O   0  0  0  0  0  2           0  0  0
    1.9304   -1.1709    2.0224 N   0  0  0  0  0  3           0  0  0
   -0.6609    0.0000    1.1846 N   0  0  0  0  0  3           0  0  0
   -2.7580   -0.0529    0.0232 N   0  0  0  0  0  3           0  0  0
    1.4139    0.0000    0.0000 N   0  0  0  0  0  3           0  0  0
    6.2038    0.1563    9.2238 N   0  0  1  0  0  3           0  0  0
    6.1159    0.1208    4.3219 N   0  0  0  0  0  3           0  0  0
   -3.9108   -0.4007   -8.0771 N   0  0  2  0  0  3           0  0  0
    2.2627   -0.5298    0.9177 C   0  0  0  0  0  4           0  0  0
    4.2659   -1.2271    2.1288 C   0  0  0  0  0  4           0  0  0
   -2.2521   -0.1366   -3.5823 C   0  0  0  0  0  4           0  0  0
   -0.8636   -0.1874   -3.6774 C   0  0  0  0  0  4           0  0  0
   -1.9997   -0.0184    1.1284 C   0  0  0  0  0  4           0  0  0
    0.0000   -0.0000    0.0000 C   0  0  0  0  0  4           0  0  0
   -2.1102   -0.0786   -1.1483 C   0  0  0  0  0  4           0  0  0
    3.0614   -1.5655    2.7072 C   0  0  0  0  0  4           0  0  0
    6.3624    0.7975    8.0127 C   0  0  0  0  0  4           0  0  0
    6.3148    0.7786    5.5512 C   0  0  0  0  0  4           0  0  0
   -0.7028   -0.0620   -1.2307 C   0  0  0  0  0  4           0  0  0
   -2.8570   -0.1182   -2.3226 C   0  0  0  0  0  4           0  0  0
   -0.0973   -0.1204   -2.5117 C   0  0  0  0  0  4           0  0  0
    6.1603    0.1277    6.7871 C   0  0  0  0  0  4           0  0  0
    6.7349    2.1537    7.9373 C   0  0  0  0  0  4           0  0  0
    6.6792    2.1242    5.5212 C   0  0  0  0  0  4           0  0  0
    6.8915    2.8084    6.7121 C   0  0  0  0  0  4           0  0  0
    5.7567   -1.1932    4.0746 C   0  0  0  0  0  4           0  0  0
   -2.9169    0.9418   -5.5758 C   0  0  0  0  0  4           0  0  0
   -4.3660   -2.8613   -8.0742 C   0  0  0  0  0  4           0  0  0
    0.0199   -1.6293   -5.2161 C   0  0  0  0  0  4           0  0  0
   -4.3819   -1.5522   -8.8534 C   0  0  2  0  0  4           0  0  0
   -4.8039    0.0485   -7.0060 C   0  0  0  0  0  4           0  0  0
   -3.6173    0.6393   -9.0638 C   0  0  0  0  0  4           0  0  0
    5.8186   -1.2466    9.2663 C   0  0  0  0  0  4           0  0  0
    6.4568    0.8663   10.4688 C   0  0  0  0  0  4           0  0  0
    5.6471   -1.5049    2.5995 C   0  0  0  0  0  4           0  0  0
   -4.2550    1.2520   -6.2349 C   0  0  0  0  0  4           0  0  0
   -3.4111   -1.5684  -10.0388 C   0  0  0  0  0  4           0  0  0
   -2.9337   -0.1267  -10.1858 C   0  0  0  0  0  4           0  0  0
  1 13  1  0     0  0
  1 14  1  0     0  0
  2 15  1  0     0  0
  2 31  1  0     0  0
  3 16  1  0     0  0
  3 33  1  0     0  0
  4 30  2  0     0  0
  5 32  1  0     0  0
  6 13  2  0     0  0
  6 20  1  0     0  0
  7 17  1  0     0  0
  7 18  2  0     0  0
  8 17  2  0     0  0
  8 19  1  0     0  0
  9 13  1  0     0  0
  9 18  1  0     0  0
 10 21  1  0     0  0
 10 37  1  0     0  0
 10 38  1  0     0  0
 11 22  1  0     0  0
 11 30  1  0     0  0
 12 34  1  0     0  0
 12 35  1  0     0  0
 12 36  1  0     0  0
 14 20  2  0     0  0
 14 39  1  0     0  0
 15 16  1  0     0  0
 15 24  2  0     0  0
 16 25  2  0     0  0
 18 23  1  0     0  0
 19 23  2  0     0  0
 19 24  1  0     0  0
 21 26  1  0     0  0
 21 27  2  0     0  0
 22 26  2  0     0  0
 22 28  1  0     0  0
 23 25  1  0     0  0
 27 29  1  0     0  0
 28 29  2  0     0  0
 30 39  1  0     0  0
 31 40  1  0     0  0
 32 34  1  0     0  0
 34 41  1  0     0  0
 35 40  1  0     0  0
 36 42  1  0     0  0
 41 42  1  0     0  0
M  END
> <standard_type>
pIC50

> <# Confs.>
25

> <canonical_smiles>
O=C(CC1=CN=C(NC2=NC=NC3=C2C=C(OC)C(OCCCN4[C@H](CO)CCC4)=C3)S1)NC5=CC(N(C)C)=CC=C5

> <standard_relation>
=

> <Publication_ID>
nan

> <predicted_activity_value>
7.638272163982407

> <actual_activity_value>
7.318758762624412

> <Compound>
30

> <standard_units>
nM

> hash
8995224793687527382

$$$$
30_
XXILIB    08252103423D 0   0.00000     0.00000

 42 46  0     1  0            999 V2000
    3.9708   -0.3854    0.6675 S   0  0  0  0  0  2           0  0  0
   -3.0893   -0.1417   -4.6620 O   0  0  0  0  0  2           0  0  0
   -0.1747   -0.2609   -4.8609 O   0  0  0  0  0  2           0  0  0
    5.9493   -0.3646    4.6879 O   0  0  0  0  0  2           0  0  0
   -3.0451   -3.1690   -7.6432 O   0  0  0  0  0  2           0  0  0
    1.9304   -1.1709    2.0224 N   0  0  0  0  0  3           0  0  0
   -0.6609    0.0000    1.1846 N   0  0  0  0  0  3           0  0  0
   -2.7580   -0.0529    0.0232 N   0  0  0  0  0  3           0  0  0
    1.4139    0.0000    0.0000 N   0  0  0  0  0  3           0  0  0
    7.9168    3.7744    6.3318 N   0  0  1  0  0  3           0  0  0
    6.7551    0.6350    2.7494 N   0  0  0  0  0  3           0  0  0
   -3.9108   -0.4007   -8.0771 N   0  0  2  0  0  3           0  0  0
    2.2627   -0.5298    0.9177 C   0  0  0  0  0  4           0  0  0
    4.2659   -1.2271    2.1288 C   0  0  0  0  0  4           0  0  0
   -2.2521   -0.1366   -3.5823 C   0  0  0  0  0  4           0  0  0
   -0.8636   -0.1874   -3.6774 C   0  0  0  0  0  4           0  0  0
   -1.9997   -0.0184    1.1284 C   0  0  0  0  0  4           0  0  0
    0.0000   -0.0000    0.0000 C   0  0  0  0  0  4           0  0  0
   -2.1102   -0.0786   -1.1483 C   0  0  0  0  0  4           0  0  0
    3.0614   -1.5655    2.7072 C   0  0  0  0  0  4           0  0  0
    7.9155    3.4154    4.9998 C   0  0  0  0  0  4           0  0  0
    7.3286    1.8391    3.2018 C   0  0  0  0  0  4           0  0  0
   -0.7028   -0.0620   -1.2307 C   0  0  0  0  0  4           0  0  0
   -2.8570   -0.1182   -2.3226 C   0  0  0  0  0  4           0  0  0
   -0.0973   -0.1204   -2.5117 C   0  0  0  0  0  4           0  0  0
    7.3376    2.2059    4.5584 C   0  0  0  0  0  4           0  0  0
    8.4916    4.2375    4.0119 C   0  0  0  0  0  4           0  0  0
    7.9050    2.6850    2.2548 C   0  0  0  0  0  4           0  0  0
    8.4876    3.8798    2.6605 C   0  0  0  0  0  4           0  0  0
    6.1287   -0.3671    3.4706 C   0  0  0  0  0  4           0  0  0
   -2.9169    0.9418   -5.5758 C   0  0  0  0  0  4           0  0  0
   -4.3660   -2.8613   -8.0742 C   0  0  0  0  0  4           0  0  0
    0.0199   -1.6293   -5.2161 C   0  0  0  0  0  4           0  0  0
   -4.3819   -1.5522   -8.8534 C   0  0  2  0  0  4           0  0  0
   -4.8039    0.0485   -7.0060 C   0  0  0  0  0  4           0  0  0
   -3.6173    0.6393   -9.0638 C   0  0  0  0  0  4           0  0  0
    7.3133    2.9011    7.3276 C   0  0  0  0  0  4           0  0  0
    8.5548    5.0110    6.7579 C   0  0  0  0  0  4           0  0  0
    5.6471   -1.5049    2.5995 C   0  0  0  0  0  4           0  0  0
   -4.2550    1.2520   -6.2349 C   0  0  0  0  0  4           0  0  0
   -3.4111   -1.5684  -10.0388 C   0  0  0  0  0  4           0  0  0
   -2.9337   -0.1267  -10.1858 C   0  0  0  0  0  4           0  0  0
  1 13  1  0     0  0
  1 14  1  0     0  0
  2 15  1  0     0  0
  2 31  1  0     0  0
  3 16  1  0     0  0
  3 33  1  0     0  0
  4 30  2  0     0  0
  5 32  1  0     0  0
  6 13  2  0     0  0
  6 20  1  0     0  0
  7 17  1  0     0  0
  7 18  2  0     0  0
  8 17  2  0     0  0
  8 19  1  0     0  0
  9 13  1  0     0  0
  9 18  1  0     0  0
 10 21  1  0     0  0
 10 37  1  0     0  0
 10 38  1  0     0  0
 11 22  1  0     0  0
 11 30  1  0     0  0
 12 34  1  0     0  0
 12 35  1  0     0  0
 12 36  1  0     0  0
 14 20  2  0     0  0
 14 39  1  0     0  0
 15 16  1  0     0  0
 15 24  2  0     0  0
 16 25  2  0     0  0
 18 23  1  0     0  0
 19 23  2  0     0  0
 19 24  1  0     0  0
 21 26  1  0     0  0
 21 27  2  0     0  0
 22 26  2  0     0  0
 22 28  1  0     0  0
 23 25  1  0     0  0
 27 29  1  0     0  0
 28 29  2  0     0  0
 30 39  1  0     0  0
 31 40  1  0     0  0
 32 34  1  0     0  0
 34 41  1  0     0  0
 35 40  1  0     0  0
 36 42  1  0     0  0
 41 42  1  0     0  0
M  END
> <standard_type>
pIC50

> <# Confs.>
25

> <canonical_smiles>
O=C(CC1=CN=C(NC2=NC=NC3=C2C=C(OC)C(OCCCN4[C@H](CO)CCC4)=C3)S1)NC5=CC(N(C)C)=CC=C5

> <standard_relation>
=

> <Publication_ID>
nan

> <predicted_activity_value>
7.638272163982407

> <actual_activity_value>
7.318758762624412

> <Compound>
30

> <standard_units>
nM

> hash
8995224793687527382

$$$$
30_
XXILIB    08252103423D 0   0.00000     0.00000

 42 46  0     1  0            999 V2000
    3.9708   -0.3854    0.6675 S   0  0  0  0  0  2           0  0  0
   -3.0893   -0.1417   -4.6620 O   0  0  0  0  0  2           0  0  0
   -0.1747   -0.2609   -4.8609 O   0  0  0  0  0  2           0  0  0
    5.9311   -3.8856    2.6633 O   0  0  0  0  0  2           0  0  0
   -6.6562    5.3801   -7.5122 O   0  0  0  0  0  2           0  0  0
    1.9304   -1.1709    2.0224 N   0  0  0  0  0  3           0  0  0
   -0.6609   -0.0000    1.1846 N   0  0  0  0  0  3           0  0  0
   -2.7580   -0.0529    0.0232 N   0  0  0  0  0  3           0  0  0
    1.4139    0.0000   -0.0000 N   0  0  0  0  0  3           0  0  0
    7.8757   -7.4015   -0.0867 N   0  0  1  0  0  3           0  0  0
    6.7664   -2.7157    0.8359 N   0  0  0  0  0  3           0  0  0
   -5.4199    2.7279   -7.8806 N   0  0  2  0  0  3           0  0  0
    2.2627   -0.5298    0.9177 C   0  0  0  0  0  4           0  0  0
    4.2659   -1.2271    2.1288 C   0  0  0  0  0  4           0  0  0
   -2.2521   -0.1366   -3.5823 C   0  0  0  0  0  4           0  0  0
   -0.8636   -0.1874   -3.6774 C   0  0  0  0  0  4           0  0  0
   -1.9997   -0.0184    1.1284 C   0  0  0  0  0  4           0  0  0
    0.0000    0.0000    0.0000 C   0  0  0  0  0  4           0  0  0
   -2.1102   -0.0786   -1.1483 C   0  0  0  0  0  4           0  0  0
    3.0614   -1.5655    2.7072 C   0  0  0  0  0  4           0  0  0
    7.8928   -6.0684   -0.4414 C   0  0  0  0  0  4           0  0  0
    7.3375   -3.7156    0.0250 C   0  0  0  0  0  4           0  0  0
   -0.7028   -0.0620   -1.2307 C   0  0  0  0  0  4           0  0  0
   -2.8570   -0.1182   -2.3226 C   0  0  0  0  0  4           0  0  0
   -0.0973   -0.1204   -2.5117 C   0  0  0  0  0  4           0  0  0
    7.3170   -5.0754    0.3795 C   0  0  0  0  0  4           0  0  0
    8.4852   -5.6302   -1.6416 C   0  0  0  0  0  4           0  0  0
    7.9397   -3.3234   -1.1700 C   0  0  0  0  0  4           0  0  0
    8.5092   -4.2798   -2.0021 C   0  0  0  0  0  4           0  0  0
    6.1160   -2.8338    2.0522 C   0  0  0  0  0  4           0  0  0
   -2.9169    0.9418   -5.5758 C   0  0  0  0  0  4           0  0  0
   -5.4303    5.2236   -8.2179 C   0  0  0  0  0  4           0  0  0
    0.0199   -1.6293   -5.2161 C   0  0  0  0  0  4           0  0  0
   -5.3504    3.8390   -8.8484 C   0  0  2  0  0  4           0  0  0
   -4.1455    2.4089   -7.2319 C   0  0  0  0  0  4           0  0  0
   -5.8929    1.5776   -8.6624 C   0  0  0  0  0  4           0  0  0
    7.2543   -7.8208    1.1609 C   0  0  0  0  0  4           0  0  0
    8.4451   -8.4044   -0.9742 C   0  0  0  0  0  4           0  0  0
    5.6471   -1.5049    2.5995 C   0  0  0  0  0  4           0  0  0
   -4.2550    1.2520   -6.2349 C   0  0  0  0  0  4           0  0  0
   -6.5405    3.5886   -9.7925 C   0  0  0  0  0  4           0  0  0
   -7.0085    2.1726   -9.4947 C   0  0  0  0  0  4           0  0  0
  1 13  1  0     0  0
  1 14  1  0     0  0
  2 15  1  0     0  0
  2 31  1  0     0  0
  3 16  1  0     0  0
  3 33  1  0     0  0
  4 30  2  0     0  0
  5 32  1  0     0  0
  6 13  2  0     0  0
  6 20  1  0     0  0
  7 17  1  0     0  0
  7 18  2  0     0  0
  8 17  2  0     0  0
  8 19  1  0     0  0
  9 13  1  0     0  0
  9 18  1  0     0  0
 10 21  1  0     0  0
 10 37  1  0     0  0
 10 38  1  0     0  0
 11 22  1  0     0  0
 11 30  1  0     0  0
 12 34  1  0     0  0
 12 35  1  0     0  0
 12 36  1  0     0  0
 14 20  2  0     0  0
 14 39  1  0     0  0
 15 16  1  0     0  0
 15 24  2  0     0  0
 16 25  2  0     0  0
 18 23  1  0     0  0
 19 23  2  0     0  0
 19 24  1  0     0  0
 21 26  1  0     0  0
 21 27  2  0     0  0
 22 26  2  0     0  0
 22 28  1  0     0  0
 23 25  1  0     0  0
 27 29  1  0     0  0
 28 29  2  0     0  0
 30 39  1  0     0  0
 31 40  1  0     0  0
 32 34  1  0     0  0
 34 41  1  0     0  0
 35 40  1  0     0  0
 36 42  1  0     0  0
 41 42  1  0     0  0
M  END
> <standard_type>
pIC50

> <# Confs.>
25

> <canonical_smiles>
O=C(CC1=CN=C(NC2=NC=NC3=C2C=C(OC)C(OCCCN4[C@H](CO)CCC4)=C3)S1)NC5=CC(N(C)C)=CC=C5

> <standard_relation>
=

> <Publication_ID>
nan

> <predicted_activity_value>
7.638272163982407

> <actual_activity_value>
7.318758762624412

> <Compound>
30

> <standard_units>
nM

> hash
8995224793687527382

$$$$
30_
XXILIB    08252103423D 0   0.00000     0.00000

 42 46  0     1  0            999 V2000
    3.9708   -0.3854    0.6675 S   0  0  0  0  0  2           0  0  0
   -3.0893   -0.1417   -4.6620 O   0  0  0  0  0  2           0  0  0
   -0.1747   -0.2609   -4.8609 O   0  0  0  0  0  2           0  0  0
    5.9493   -0.3646    4.6879 O   0  0  0  0  0  2           0  0  0
   -5.9074    0.0052  -10.5602 O   0  0  0  0  0  2           0  0  0
    1.9304   -1.1709    2.0224 N   0  0  0  0  0  3           0  0  0
   -0.6609    0.0000    1.1846 N   0  0  0  0  0  3           0  0  0
   -2.7580   -0.0529    0.0232 N   0  0  0  0  0  3           0  0  0
    1.4139    0.0000    0.0000 N   0  0  0  0  0  3           0  0  0
    7.9168    3.7744    6.3318 N   0  0  1  0  0  3           0  0  0
    6.7551    0.6350    2.7494 N   0  0  0  0  0  3           0  0  0
   -6.0915    0.3204   -7.6502 N   0  0  2  0  0  3           0  0  0
    2.2627   -0.5298    0.9177 C   0  0  0  0  0  4           0  0  0
    4.2659   -1.2271    2.1288 C   0  0  0  0  0  4           0  0  0
   -2.2521   -0.1366   -3.5823 C   0  0  0  0  0  4           0  0  0
   -0.8636   -0.1874   -3.6774 C   0  0  0  0  0  4           0  0  0
   -1.9997   -0.0184    1.1284 C   0  0  0  0  0  4           0  0  0
    0.0000   -0.0000    0.0000 C   0  0  0  0  0  4           0  0  0
   -2.1102   -0.0786   -1.1483 C   0  0  0  0  0  4           0  0  0
    3.0614   -1.5655    2.7072 C   0  0  0  0  0  4           0  0  0
    7.9155    3.4154    4.9998 C   0  0  0  0  0  4           0  0  0
    7.3286    1.8391    3.2018 C   0  0  0  0  0  4           0  0  0
   -0.7028   -0.0620   -1.2307 C   0  0  0  0  0  4           0  0  0
   -2.8570   -0.1182   -2.3226 C   0  0  0  0  0  4           0  0  0
   -0.0973   -0.1204   -2.5117 C   0  0  0  0  0  4           0  0  0
    7.3376    2.2059    4.5584 C   0  0  0  0  0  4           0  0  0
    8.4916    4.2375    4.0119 C   0  0  0  0  0  4           0  0  0
    7.9050    2.6850    2.2548 C   0  0  0  0  0  4           0  0  0
    8.4876    3.8798    2.6605 C   0  0  0  0  0  4           0  0  0
    6.1287   -0.3671    3.4706 C   0  0  0  0  0  4           0  0  0
   -2.9169    0.9418   -5.5758 C   0  0  0  0  0  4           0  0  0
   -5.9158   -1.1200   -9.6889 C   0  0  0  0  0  4           0  0  0
    0.0199   -1.6293   -5.2161 C   0  0  0  0  0  4           0  0  0
   -6.6699   -0.7957   -8.4055 C   0  0  2  0  0  4           0  0  0
   -4.8039    0.0485   -7.0060 C   0  0  0  0  0  4           0  0  0
   -7.1345    0.7367   -6.7121 C   0  0  0  0  0  4           0  0  0
    7.3133    2.9011    7.3276 C   0  0  0  0  0  4           0  0  0
    8.5548    5.0110    6.7579 C   0  0  0  0  0  4           0  0  0
    5.6471   -1.5049    2.5995 C   0  0  0  0  0  4           0  0  0
   -4.2550    1.2520   -6.2349 C   0  0  0  0  0  4           0  0  0
   -8.0960   -0.3047   -8.6763 C   0  0  0  0  0  4           0  0  0
   -8.4019    0.6790   -7.5508 C   0  0  0  0  0  4           0  0  0
  1 13  1  0     0  0
  1 14  1  0     0  0
  2 15  1  0     0  0
  2 31  1  0     0  0
  3 16  1  0     0  0
  3 33  1  0     0  0
  4 30  2  0     0  0
  5 32  1  0     0  0
  6 13  2  0     0  0
  6 20  1  0     0  0
  7 17  1  0     0  0
  7 18  2  0     0  0
  8 17  2  0     0  0
  8 19  1  0     0  0
  9 13  1  0     0  0
  9 18  1  0     0  0
 10 21  1  0     0  0
 10 37  1  0     0  0
 10 38  1  0     0  0
 11 22  1  0     0  0
 11 30  1  0     0  0
 12 34  1  0     0  0
 12 35  1  0     0  0
 12 36  1  0     0  0
 14 20  2  0     0  0
 14 39  1  0     0  0
 15 16  1  0     0  0
 15 24  2  0     0  0
 16 25  2  0     0  0
 18 23  1  0     0  0
 19 23  2  0     0  0
 19 24  1  0     0  0
 21 26  1  0     0  0
 21 27  2  0     0  0
 22 26  2  0     0  0
 22 28  1  0     0  0
 23 25  1  0     0  0
 27 29  1  0     0  0
 28 29  2  0     0  0
 30 39  1  0     0  0
 31 40  1  0     0  0
 32 34  1  0     0  0
 34 41  1  0     0  0
 35 40  1  0     0  0
 36 42  1  0     0  0
 41 42  1  0     0  0
M  END
> <standard_type>
pIC50

> <# Confs.>
25

> <canonical_smiles>
O=C(CC1=CN=C(NC2=NC=NC3=C2C=C(OC)C(OCCCN4[C@H](CO)CCC4)=C3)S1)NC5=CC(N(C)C)=CC=C5

> <standard_relation>
=

> <Publication_ID>
nan

> <predicted_activity_value>
7.638272163982407

> <actual_activity_value>
7.318758762624412

> <Compound>
30

> <standard_units>
nM

> hash
8995224793687527382

$$$$
30_
XXILIB    08252103423D 0   0.00000     0.00000

 42 46  0     1  0            999 V2000
    3.9708   -0.3854    0.6675 S   0  0  0  0  0  2           0  0  0
   -3.0893   -0.1417   -4.6620 O   0  0  0  0  0  2           0  0  0
   -0.1747   -0.2609   -4.8609 O   0  0  0  0  0  2           0  0  0
    5.5217   -3.2499    4.2402 O   0  0  0  0  0  2           0  0  0
   -8.7013    0.1418   -4.8239 O   0  0  0  0  0  2           0  0  0
    1.9304   -1.1709    2.0224 N   0  0  0  0  0  3           0  0  0
   -0.6609    0.0000    1.1846 N   0  0  0  0  0  3           0  0  0
   -2.7580   -0.0529    0.0232 N   0  0  0  0  0  3           0  0  0
    1.4139   -0.0000   -0.0000 N   0  0  0  0  0  3           0  0  0
    6.1795   -8.0671    4.4982 N   0  0  1  0  0  3           0  0  0
    6.1270   -3.8102    2.0663 N   0  0  0  0  0  3           0  0  0
   -6.6171    1.9510   -5.8158 N   0  0  2  0  0  3           0  0  0
    2.2627   -0.5298    0.9177 C   0  0  0  0  0  4           0  0  0
    4.2659   -1.2271    2.1288 C   0  0  0  0  0  4           0  0  0
   -2.2521   -0.1366   -3.5823 C   0  0  0  0  0  4           0  0  0
   -0.8636   -0.1874   -3.6774 C   0  0  0  0  0  4           0  0  0
   -1.9997   -0.0184    1.1284 C   0  0  0  0  0  4           0  0  0
    0.0000    0.0000    0.0000 C   0  0  0  0  0  4           0  0  0
   -2.1102   -0.0786   -1.1483 C   0  0  0  0  0  4           0  0  0
    3.0614   -1.5655    2.7072 C   0  0  0  0  0  4           0  0  0
    6.3492   -7.3426    3.3365 C   0  0  0  0  0  4           0  0  0
    6.3252   -5.2036    2.1177 C   0  0  0  0  0  4           0  0  0
   -0.7028   -0.0620   -1.2307 C   0  0  0  0  0  4           0  0  0
   -2.8570   -0.1182   -2.3226 C   0  0  0  0  0  4           0  0  0
   -0.0973   -0.1204   -2.5117 C   0  0  0  0  0  4           0  0  0
    6.1476   -5.9464    3.2974 C   0  0  0  0  0  4           0  0  0
    6.7317   -7.9595    2.1296 C   0  0  0  0  0  4           0  0  0
    6.7102   -5.8528    0.9452 C   0  0  0  0  0  4           0  0  0
    6.9098   -7.2282    0.9516 C   0  0  0  0  0  4           0  0  0
    5.7477   -2.9374    3.0717 C   0  0  0  0  0  4           0  0  0
   -2.9169    0.9418   -5.5758 C   0  0  0  0  0  4           0  0  0
   -8.1764    1.1874   -4.0138 C   0  0  0  0  0  4           0  0  0
    0.0199   -1.6293   -5.2161 C   0  0  0  0  0  4           0  0  0
   -7.6796    2.3368   -4.8816 C   0  0  2  0  0  4           0  0  0
   -5.3193    1.6472   -5.2075 C   0  0  0  0  0  4           0  0  0
   -6.5580    3.0289   -6.8037 C   0  0  0  0  0  4           0  0  0
    5.7827   -7.3984    5.7285 C   0  0  0  0  0  4           0  0  0
    6.3588   -9.5114    4.4952 C   0  0  0  0  0  4           0  0  0
    5.6471   -1.5049    2.5995 C   0  0  0  0  0  4           0  0  0
   -4.2550    1.2520   -6.2349 C   0  0  0  0  0  4           0  0  0
   -8.7665    2.8684   -5.8219 C   0  0  0  0  0  4           0  0  0
   -8.0229    3.3418   -7.0673 C   0  0  0  0  0  4           0  0  0
  1 13  1  0     0  0
  1 14  1  0     0  0
  2 15  1  0     0  0
  2 31  1  0     0  0
  3 16  1  0     0  0
  3 33  1  0     0  0
  4 30  2  0     0  0
  5 32  1  0     0  0
  6 13  2  0     0  0
  6 20  1  0     0  0
  7 17  1  0     0  0
  7 18  2  0     0  0
  8 17  2  0     0  0
  8 19  1  0     0  0
  9 13  1  0     0  0
  9 18  1  0     0  0
 10 21  1  0     0  0
 10 37  1  0     0  0
 10 38  1  0     0  0
 11 22  1  0     0  0
 11 30  1  0     0  0
 12 34  1  0     0  0
 12 35  1  0     0  0
 12 36  1  0     0  0
 14 20  2  0     0  0
 14 39  1  0     0  0
 15 16  1  0     0  0
 15 24  2  0     0  0
 16 25  2  0     0  0
 18 23  1  0     0  0
 19 23  2  0     0  0
 19 24  1  0     0  0
 21 26  1  0     0  0
 21 27  2  0     0  0
 22 26  2  0     0  0
 22 28  1  0     0  0
 23 25  1  0     0  0
 27 29  1  0     0  0
 28 29  2  0     0  0
 30 39  1  0     0  0
 31 40  1  0     0  0
 32 34  1  0     0  0
 34 41  1  0     0  0
 35 40  1  0     0  0
 36 42  1  0     0  0
 41 42  1  0     0  0
M  END
> <standard_type>
pIC50

> <# Confs.>
25

> <canonical_smiles>
O=C(CC1=CN=C(NC2=NC=NC3=C2C=C(OC)C(OCCCN4[C@H](CO)CCC4)=C3)S1)NC5=CC(N(C)C)=CC=C5

> <standard_relation>
=

> <Publication_ID>
nan

> <predicted_activity_value>
7.638272163982407

> <actual_activity_value>
7.318758762624412

> <Compound>
30

> <standard_units>
nM

> hash
8995224793687527382

$$$$
30_
XXILIB    08252103423D 0   0.00000     0.00000

 42 46  0     1  0            999 V2000
    3.9708   -0.3854    0.6675 S   0  0  0  0  0  2           0  0  0
   -3.0893   -0.1417   -4.6620 O   0  0  0  0  0  2           0  0  0
   -0.1747   -0.2609   -4.8609 O   0  0  0  0  0  2           0  0  0
    5.5279   -2.0440    4.9336 O   0  0  0  0  0  2           0  0  0
   -8.7013    0.1418   -4.8239 O   0  0  0  0  0  2           0  0  0
    1.9304   -1.1709    2.0224 N   0  0  0  0  0  3           0  0  0
   -0.6609    0.0000    1.1846 N   0  0  0  0  0  3           0  0  0
   -2.7580   -0.0529    0.0232 N   0  0  0  0  0  3           0  0  0
    1.4139    0.0000    0.0000 N   0  0  0  0  0  3           0  0  0
    6.2038    0.1563    9.2238 N   0  0  1  0  0  3           0  0  0
    6.1159    0.1208    4.3219 N   0  0  0  0  0  3           0  0  0
   -6.6171    1.9510   -5.8158 N   0  0  2  0  0  3           0  0  0
    2.2627   -0.5298    0.9177 C   0  0  0  0  0  4           0  0  0
    4.2659   -1.2271    2.1288 C   0  0  0  0  0  4           0  0  0
   -2.2521   -0.1366   -3.5823 C   0  0  0  0  0  4           0  0  0
   -0.8636   -0.1874   -3.6774 C   0  0  0  0  0  4           0  0  0
   -1.9997   -0.0184    1.1284 C   0  0  0  0  0  4           0  0  0
    0.0000    0.0000    0.0000 C   0  0  0  0  0  4           0  0  0
   -2.1102   -0.0786   -1.1483 C   0  0  0  0  0  4           0  0  0
    3.0614   -1.5655    2.7072 C   0  0  0  0  0  4           0  0  0
    6.3624    0.7975    8.0127 C   0  0  0  0  0  4           0  0  0
    6.3148    0.7786    5.5512 C   0  0  0  0  0  4           0  0  0
   -0.7028   -0.0620   -1.2307 C   0  0  0  0  0  4           0  0  0
   -2.8570   -0.1182   -2.3226 C   0  0  0  0  0  4           0  0  0
   -0.0973   -0.1204   -2.5117 C   0  0  0  0  0  4           0  0  0
    6.1603    0.1277    6.7871 C   0  0  0  0  0  4           0  0  0
    6.7349    2.1537    7.9373 C   0  0  0  0  0  4           0  0  0
    6.6792    2.1242    5.5212 C   0  0  0  0  0  4           0  0  0
    6.8915    2.8084    6.7121 C   0  0  0  0  0  4           0  0  0
    5.7567   -1.1932    4.0746 C   0  0  0  0  0  4           0  0  0
   -2.9169    0.9418   -5.5758 C   0  0  0  0  0  4           0  0  0
   -8.1764    1.1874   -4.0138 C   0  0  0  0  0  4           0  0  0
    0.0199   -1.6293   -5.2161 C   0  0  0  0  0  4           0  0  0
   -7.6796    2.3368   -4.8816 C   0  0  2  0  0  4           0  0  0
   -5.3193    1.6472   -5.2075 C   0  0  0  0  0  4           0  0  0
   -6.5580    3.0289   -6.8037 C   0  0  0  0  0  4           0  0  0
    5.8186   -1.2466    9.2663 C   0  0  0  0  0  4           0  0  0
    6.4568    0.8663   10.4688 C   0  0  0  0  0  4           0  0  0
    5.6471   -1.5049    2.5995 C   0  0  0  0  0  4           0  0  0
   -4.2550    1.2520   -6.2349 C   0  0  0  0  0  4           0  0  0
   -8.7665    2.8684   -5.8219 C   0  0  0  0  0  4           0  0  0
   -8.0229    3.3418   -7.0673 C   0  0  0  0  0  4           0  0  0
  1 13  1  0     0  0
  1 14  1  0     0  0
  2 15  1  0     0  0
  2 31  1  0     0  0
  3 16  1  0     0  0
  3 33  1  0     0  0
  4 30  2  0     0  0
  5 32  1  0     0  0
  6 13  2  0     0  0
  6 20  1  0     0  0
  7 17  1  0     0  0
  7 18  2  0     0  0
  8 17  2  0     0  0
  8 19  1  0     0  0
  9 13  1  0     0  0
  9 18  1  0     0  0
 10 21  1  0     0  0
 10 37  1  0     0  0
 10 38  1  0     0  0
 11 22  1  0     0  0
 11 30  1  0     0  0
 12 34  1  0     0  0
 12 35  1  0     0  0
 12 36  1  0     0  0
 14 20  2  0     0  0
 14 39  1  0     0  0
 15 16  1  0     0  0
 15 24  2  0     0  0
 16 25  2  0     0  0
 18 23  1  0     0  0
 19 23  2  0     0  0
 19 24  1  0     0  0
 21 26  1  0     0  0
 21 27  2  0     0  0
 22 26  2  0     0  0
 22 28  1  0     0  0
 23 25  1  0     0  0
 27 29  1  0     0  0
 28 29  2  0     0  0
 30 39  1  0     0  0
 31 40  1  0     0  0
 32 34  1  0     0  0
 34 41  1  0     0  0
 35 40  1  0     0  0
 36 42  1  0     0  0
 41 42  1  0     0  0
M  END
> <standard_type>
pIC50

> <# Confs.>
25

> <canonical_smiles>
O=C(CC1=CN=C(NC2=NC=NC3=C2C=C(OC)C(OCCCN4[C@H](CO)CCC4)=C3)S1)NC5=CC(N(C)C)=CC=C5

> <standard_relation>
=

> <Publication_ID>
nan

> <predicted_activity_value>
7.638272163982407

> <actual_activity_value>
7.318758762624412

> <Compound>
30

> <standard_units>
nM

> hash
8995224793687527382

$$$$
30_
XXILIB    08252103423D 0   0.00000     0.00000

 42 46  0     1  0            999 V2000
    3.9708   -0.3854    0.6675 S   0  0  0  0  0  2           0  0  0
   -3.0893   -0.1417   -4.6620 O   0  0  0  0  0  2           0  0  0
   -0.1747   -0.2609   -4.8609 O   0  0  0  0  0  2           0  0  0
    6.7016   -2.9179    0.9734 O   0  0  0  0  0  2           0  0  0
   -1.1569    4.9041   -7.4604 O   0  0  0  0  0  2           0  0  0
    1.9304   -1.1709    2.0224 N   0  0  0  0  0  3           0  0  0
   -0.6609   -0.0000    1.1846 N   0  0  0  0  0  3           0  0  0
   -2.7580   -0.0529    0.0232 N   0  0  0  0  0  3           0  0  0
    1.4139   -0.0000   -0.0000 N   0  0  0  0  0  3           0  0  0
    7.6660   -7.6464    0.3286 N   0  0  1  0  0  3           0  0  0
    5.7994   -3.8981    2.8790 N   0  0  0  0  0  3           0  0  0
   -3.6915    3.6568   -6.6129 N   0  0  2  0  0  3           0  0  0
    2.2627   -0.5298    0.9177 C   0  0  0  0  0  4           0  0  0
    4.2659   -1.2271    2.1288 C   0  0  0  0  0  4           0  0  0
   -2.2521   -0.1366   -3.5823 C   0  0  0  0  0  4           0  0  0
   -0.8636   -0.1874   -3.6774 C   0  0  0  0  0  4           0  0  0
   -1.9997   -0.0184    1.1284 C   0  0  0  0  0  4           0  0  0
    0.0000    0.0000    0.0000 C   0  0  0  0  0  4           0  0  0
   -2.1102   -0.0786   -1.1483 C   0  0  0  0  0  4           0  0  0
    3.0614   -1.5655    2.7072 C   0  0  0  0  0  4           0  0  0
    7.0049   -7.1543    1.4348 C   0  0  0  0  0  4           0  0  0
    6.0656   -5.2711    2.7127 C   0  0  0  0  0  4           0  0  0
   -0.7028   -0.0620   -1.2307 C   0  0  0  0  0  4           0  0  0
   -2.8570   -0.1182   -2.3226 C   0  0  0  0  0  4           0  0  0
   -0.0973   -0.1204   -2.5117 C   0  0  0  0  0  4           0  0  0
    6.7440   -5.7761    1.5903 C   0  0  0  0  0  4           0  0  0
    6.5570   -8.0021    2.4664 C   0  0  0  0  0  4           0  0  0
    5.6337   -6.1460    3.7090 C   0  0  0  0  0  4           0  0  0
    5.8821   -7.5080    3.5864 C   0  0  0  0  0  4           0  0  0
    6.1160   -2.8338    2.0522 C   0  0  0  0  0  4           0  0  0
   -2.9169    0.9418   -5.5758 C   0  0  0  0  0  4           0  0  0
   -2.2738    4.8210   -8.3383 C   0  0  0  0  0  4           0  0  0
    0.0199   -1.6293   -5.2161 C   0  0  0  0  0  4           0  0  0
   -3.5747    4.7933   -7.5459 C   0  0  2  0  0  4           0  0  0
   -4.1455    2.4089   -7.2319 C   0  0  0  0  0  4           0  0  0
   -4.6575    4.1007   -5.5990 C   0  0  0  0  0  4           0  0  0
    8.1163   -6.7424   -0.7194 C   0  0  0  0  0  4           0  0  0
    7.9523   -9.0690    0.2174 C   0  0  0  0  0  4           0  0  0
    5.6471   -1.5049    2.5995 C   0  0  0  0  0  4           0  0  0
   -4.2550    1.2520   -6.2349 C   0  0  0  0  0  4           0  0  0
   -3.7021    6.0339   -6.6431 C   0  0  0  0  0  4           0  0  0
   -4.2110    5.5171   -5.3065 C   0  0  0  0  0  4           0  0  0
  1 13  1  0     0  0
  1 14  1  0     0  0
  2 15  1  0     0  0
  2 31  1  0     0  0
  3 16  1  0     0  0
  3 33  1  0     0  0
  4 30  2  0     0  0
  5 32  1  0     0  0
  6 13  2  0     0  0
  6 20  1  0     0  0
  7 17  1  0     0  0
  7 18  2  0     0  0
  8 17  2  0     0  0
  8 19  1  0     0  0
  9 13  1  0     0  0
  9 18  1  0     0  0
 10 21  1  0     0  0
 10 37  1  0     0  0
 10 38  1  0     0  0
 11 22  1  0     0  0
 11 30  1  0     0  0
 12 34  1  0     0  0
 12 35  1  0     0  0
 12 36  1  0     0  0
 14 20  2  0     0  0
 14 39  1  0     0  0
 15 16  1  0     0  0
 15 24  2  0     0  0
 16 25  2  0     0  0
 18 23  1  0     0  0
 19 23  2  0     0  0
 19 24  1  0     0  0
 21 26  1  0     0  0
 21 27  2  0     0  0
 22 26  2  0     0  0
 22 28  1  0     0  0
 23 25  1  0     0  0
 27 29  1  0     0  0
 28 29  2  0     0  0
 30 39  1  0     0  0
 31 40  1  0     0  0
 32 34  1  0     0  0
 34 41  1  0     0  0
 35 40  1  0     0  0
 36 42  1  0     0  0
 41 42  1  0     0  0
M  END
> <standard_type>
pIC50

> <# Confs.>
25

> <canonical_smiles>
O=C(CC1=CN=C(NC2=NC=NC3=C2C=C(OC)C(OCCCN4[C@H](CO)CCC4)=C3)S1)NC5=CC(N(C)C)=CC=C5

> <standard_relation>
=

> <Publication_ID>
nan

> <predicted_activity_value>
7.638272163982407

> <actual_activity_value>
7.318758762624412

> <Compound>
30

> <standard_units>
nM

> hash
8995224793687527382

$$$$
30_
XXILIB    08252103423D 0   0.00000     0.00000

 42 46  0     1  0            999 V2000
    3.9708   -0.3854    0.6675 S   0  0  0  0  0  2           0  0  0
   -3.0893   -0.1417   -4.6620 O   0  0  0  0  0  2           0  0  0
   -0.1747   -0.2609   -4.8609 O   0  0  0  0  0  2           0  0  0
    5.9493   -0.3646    4.6879 O   0  0  0  0  0  2           0  0  0
   -8.7013    0.1418   -4.8239 O   0  0  0  0  0  2           0  0  0
    1.9304   -1.1709    2.0224 N   0  0  0  0  0  3           0  0  0
   -0.6609    0.0000    1.1846 N   0  0  0  0  0  3           0  0  0
   -2.7580   -0.0529    0.0232 N   0  0  0  0  0  3           0  0  0
    1.4139    0.0000    0.0000 N   0  0  0  0  0  3           0  0  0
    7.9168    3.7744    6.3318 N   0  0  1  0  0  3           0  0  0
    6.7551    0.6350    2.7494 N   0  0  0  0  0  3           0  0  0
   -6.6171    1.9510   -5.8158 N   0  0  2  0  0  3           0  0  0
    2.2627   -0.5298    0.9177 C   0  0  0  0  0  4           0  0  0
    4.2659   -1.2271    2.1288 C   0  0  0  0  0  4           0  0  0
   -2.2521   -0.1366   -3.5823 C   0  0  0  0  0  4           0  0  0
   -0.8636   -0.1874   -3.6774 C   0  0  0  0  0  4           0  0  0
   -1.9997   -0.0184    1.1284 C   0  0  0  0  0  4           0  0  0
    0.0000    0.0000    0.0000 C   0  0  0  0  0  4           0  0  0
   -2.1102   -0.0786   -1.1483 C   0  0  0  0  0  4           0  0  0
    3.0614   -1.5655    2.7072 C   0  0  0  0  0  4           0  0  0
    7.9155    3.4154    4.9998 C   0  0  0  0  0  4           0  0  0
    7.3286    1.8391    3.2018 C   0  0  0  0  0  4           0  0  0
   -0.7028   -0.0620   -1.2307 C   0  0  0  0  0  4           0  0  0
   -2.8570   -0.1182   -2.3226 C   0  0  0  0  0  4           0  0  0
   -0.0973   -0.1204   -2.5117 C   0  0  0  0  0  4           0  0  0
    7.3376    2.2059    4.5584 C   0  0  0  0  0  4           0  0  0
    8.4916    4.2375    4.0119 C   0  0  0  0  0  4           0  0  0
    7.9050    2.6850    2.2548 C   0  0  0  0  0  4           0  0  0
    8.4876    3.8798    2.6605 C   0  0  0  0  0  4           0  0  0
    6.1287   -0.3671    3.4706 C   0  0  0  0  0  4           0  0  0
   -2.9169    0.9418   -5.5758 C   0  0  0  0  0  4           0  0  0
   -8.1764    1.1874   -4.0138 C   0  0  0  0  0  4           0  0  0
    0.0199   -1.6293   -5.2161 C   0  0  0  0  0  4           0  0  0
   -7.6796    2.3368   -4.8816 C   0  0  2  0  0  4           0  0  0
   -5.3193    1.6472   -5.2075 C   0  0  0  0  0  4           0  0  0
   -6.5580    3.0289   -6.8037 C   0  0  0  0  0  4           0  0  0
    7.3133    2.9011    7.3276 C   0  0  0  0  0  4           0  0  0
    8.5548    5.0110    6.7579 C   0  0  0  0  0  4           0  0  0
    5.6471   -1.5049    2.5995 C   0  0  0  0  0  4           0  0  0
   -4.2550    1.2520   -6.2349 C   0  0  0  0  0  4           0  0  0
   -8.7665    2.8684   -5.8219 C   0  0  0  0  0  4           0  0  0
   -8.0229    3.3418   -7.0673 C   0  0  0  0  0  4           0  0  0
  1 13  1  0     0  0
  1 14  1  0     0  0
  2 15  1  0     0  0
  2 31  1  0     0  0
  3 16  1  0     0  0
  3 33  1  0     0  0
  4 30  2  0     0  0
  5 32  1  0     0  0
  6 13  2  0     0  0
  6 20  1  0     0  0
  7 17  1  0     0  0
  7 18  2  0     0  0
  8 17  2  0     0  0
  8 19  1  0     0  0
  9 13  1  0     0  0
  9 18  1  0     0  0
 10 21  1  0     0  0
 10 37  1  0     0  0
 10 38  1  0     0  0
 11 22  1  0     0  0
 11 30  1  0     0  0
 12 34  1  0     0  0
 12 35  1  0     0  0
 12 36  1  0     0  0
 14 20  2  0     0  0
 14 39  1  0     0  0
 15 16  1  0     0  0
 15 24  2  0     0  0
 16 25  2  0     0  0
 18 23  1  0     0  0
 19 23  2  0     0  0
 19 24  1  0     0  0
 21 26  1  0     0  0
 21 27  2  0     0  0
 22 26  2  0     0  0
 22 28  1  0     0  0
 23 25  1  0     0  0
 27 29  1  0     0  0
 28 29  2  0     0  0
 30 39  1  0     0  0
 31 40  1  0     0  0
 32 34  1  0     0  0
 34 41  1  0     0  0
 35 40  1  0     0  0
 36 42  1  0     0  0
 41 42  1  0     0  0
M  END
> <standard_type>
pIC50

> <# Confs.>
25

> <canonical_smiles>
O=C(CC1=CN=C(NC2=NC=NC3=C2C=C(OC)C(OCCCN4[C@H](CO)CCC4)=C3)S1)NC5=CC(N(C)C)=CC=C5

> <standard_relation>
=

> <Publication_ID>
nan

> <predicted_activity_value>
7.638272163982407

> <actual_activity_value>
7.318758762624412

> <Compound>
30

> <standard_units>
nM

> hash
8995224793687527382

$$$$
30_
XXILIB    08252103423D 0   0.00000     0.00000

 42 46  0     1  0            999 V2000
    3.9708   -0.3854    0.6675 S   0  0  0  0  0  2           0  0  0
   -3.0893   -0.1417   -4.6620 O   0  0  0  0  0  2           0  0  0
   -0.1747   -0.2609   -4.8609 O   0  0  0  0  0  2           0  0  0
    6.7198    0.6031    2.9979 O   0  0  0  0  0  2           0  0  0
   -1.1569    4.9041   -7.4604 O   0  0  0  0  0  2           0  0  0
    1.9304   -1.1709    2.0224 N   0  0  0  0  0  3           0  0  0
   -0.6609   -0.0000    1.1846 N   0  0  0  0  0  3           0  0  0
   -2.7580   -0.0529    0.0232 N   0  0  0  0  0  3           0  0  0
    1.4139   -0.0000   -0.0000 N   0  0  0  0  0  3           0  0  0
    7.7399    3.5228    6.7582 N   0  0  1  0  0  3           0  0  0
    5.8452   -0.5589    4.8120 N   0  0  0  0  0  3           0  0  0
   -3.6915    3.6568   -6.6129 N   0  0  2  0  0  3           0  0  0
    2.2627   -0.5298    0.9177 C   0  0  0  0  0  4           0  0  0
    4.2659   -1.2271    2.1288 C   0  0  0  0  0  4           0  0  0
   -2.2521   -0.1366   -3.5823 C   0  0  0  0  0  4           0  0  0
   -0.8636   -0.1874   -3.6774 C   0  0  0  0  0  4           0  0  0
   -1.9997   -0.0184    1.1284 C   0  0  0  0  0  4           0  0  0
    0.0000    0.0000    0.0000 C   0  0  0  0  0  4           0  0  0
   -2.1102   -0.0786   -1.1483 C   0  0  0  0  0  4           0  0  0
    3.0614   -1.5655    2.7072 C   0  0  0  0  0  4           0  0  0
    7.0798    2.3191    6.8938 C   0  0  0  0  0  4           0  0  0
    6.1316    0.2686    5.9150 C   0  0  0  0  0  4           0  0  0
   -0.7028   -0.0620   -1.2307 C   0  0  0  0  0  4           0  0  0
   -2.8570   -0.1182   -2.3226 C   0  0  0  0  0  4           0  0  0
   -0.0973   -0.1204   -2.5117 C   0  0  0  0  0  4           0  0  0
    6.7983    1.4984    5.7807 C   0  0  0  0  0  4           0  0  0
    6.6522    1.8477    8.1502 C   0  0  0  0  0  4           0  0  0
    5.7301   -0.1640    7.1784 C   0  0  0  0  0  4           0  0  0
    5.9877    0.6261    8.2924 C   0  0  0  0  0  4           0  0  0
    6.1287   -0.3671    3.4706 C   0  0  0  0  0  4           0  0  0
   -2.9169    0.9418   -5.5758 C   0  0  0  0  0  4           0  0  0
   -2.2738    4.8210   -8.3383 C   0  0  0  0  0  4           0  0  0
    0.0199   -1.6293   -5.2161 C   0  0  0  0  0  4           0  0  0
   -3.5747    4.7933   -7.5459 C   0  0  2  0  0  4           0  0  0
   -4.1455    2.4089   -7.2319 C   0  0  0  0  0  4           0  0  0
   -4.6575    4.1007   -5.5990 C   0  0  0  0  0  4           0  0  0
    8.1677    3.9810    5.4446 C   0  0  0  0  0  4           0  0  0
    7.9809    4.3628    7.9219 C   0  0  0  0  0  4           0  0  0
    5.6471   -1.5049    2.5995 C   0  0  0  0  0  4           0  0  0
   -4.2550    1.2520   -6.2349 C   0  0  0  0  0  4           0  0  0
   -3.7021    6.0339   -6.6431 C   0  0  0  0  0  4           0  0  0
   -4.2110    5.5171   -5.3065 C   0  0  0  0  0  4           0  0  0
  1 13  1  0     0  0
  1 14  1  0     0  0
  2 15  1  0     0  0
  2 31  1  0     0  0
  3 16  1  0     0  0
  3 33  1  0     0  0
  4 30  2  0     0  0
  5 32  1  0     0  0
  6 13  2  0     0  0
  6 20  1  0     0  0
  7 17  1  0     0  0
  7 18  2  0     0  0
  8 17  2  0     0  0
  8 19  1  0     0  0
  9 13  1  0     0  0
  9 18  1  0     0  0
 10 21  1  0     0  0
 10 37  1  0     0  0
 10 38  1  0     0  0
 11 22  1  0     0  0
 11 30  1  0     0  0
 12 34  1  0     0  0
 12 35  1  0     0  0
 12 36  1  0     0  0
 14 20  2  0     0  0
 14 39  1  0     0  0
 15 16  1  0     0  0
 15 24  2  0     0  0
 16 25  2  0     0  0
 18 23  1  0     0  0
 19 23  2  0     0  0
 19 24  1  0     0  0
 21 26  1  0     0  0
 21 27  2  0     0  0
 22 26  2  0     0  0
 22 28  1  0     0  0
 23 25  1  0     0  0
 27 29  1  0     0  0
 28 29  2  0     0  0
 30 39  1  0     0  0
 31 40  1  0     0  0
 32 34  1  0     0  0
 34 41  1  0     0  0
 35 40  1  0     0  0
 36 42  1  0     0  0
 41 42  1  0     0  0
M  END
> <standard_type>
pIC50

> <# Confs.>
25

> <canonical_smiles>
O=C(CC1=CN=C(NC2=NC=NC3=C2C=C(OC)C(OCCCN4[C@H](CO)CCC4)=C3)S1)NC5=CC(N(C)C)=CC=C5

> <standard_relation>
=

> <Publication_ID>
nan

> <predicted_activity_value>
7.638272163982407

> <actual_activity_value>
7.318758762624412

> <Compound>
30

> <standard_units>
nM

> hash
8995224793687527382

$$$$
30_
XXILIB    08252103423D 0   0.00000     0.00000

 42 46  0     1  0            999 V2000
    3.9708   -0.3854    0.6675 S   0  0  0  0  0  2           0  0  0
   -3.0893   -0.1417   -4.6620 O   0  0  0  0  0  2           0  0  0
   -0.1747   -0.2609   -4.8609 O   0  0  0  0  0  2           0  0  0
    5.5217   -3.2499    4.2402 O   0  0  0  0  0  2           0  0  0
   -6.6562    5.3801   -7.5122 O   0  0  0  0  0  2           0  0  0
    1.9304   -1.1709    2.0224 N   0  0  0  0  0  3           0  0  0
   -0.6609   -0.0000    1.1846 N   0  0  0  0  0  3           0  0  0
   -2.7580   -0.0529    0.0232 N   0  0  0  0  0  3           0  0  0
    1.4139   -0.0000   -0.0000 N   0  0  0  0  0  3           0  0  0
    6.1795   -8.0671    4.4982 N   0  0  1  0  0  3           0  0  0
    6.1270   -3.8102    2.0663 N   0  0  0  0  0  3           0  0  0
   -5.4199    2.7279   -7.8806 N   0  0  2  0  0  3           0  0  0
    2.2627   -0.5298    0.9177 C   0  0  0  0  0  4           0  0  0
    4.2659   -1.2271    2.1288 C   0  0  0  0  0  4           0  0  0
   -2.2521   -0.1366   -3.5823 C   0  0  0  0  0  4           0  0  0
   -0.8636   -0.1874   -3.6774 C   0  0  0  0  0  4           0  0  0
   -1.9997   -0.0184    1.1284 C   0  0  0  0  0  4           0  0  0
    0.0000    0.0000    0.0000 C   0  0  0  0  0  4           0  0  0
   -2.1102   -0.0786   -1.1483 C   0  0  0  0  0  4           0  0  0
    3.0614   -1.5655    2.7072 C   0  0  0  0  0  4           0  0  0
    6.3492   -7.3426    3.3365 C   0  0  0  0  0  4           0  0  0
    6.3252   -5.2036    2.1177 C   0  0  0  0  0  4           0  0  0
   -0.7028   -0.0620   -1.2307 C   0  0  0  0  0  4           0  0  0
   -2.8570   -0.1182   -2.3226 C   0  0  0  0  0  4           0  0  0
   -0.0973   -0.1204   -2.5117 C   0  0  0  0  0  4           0  0  0
    6.1476   -5.9464    3.2974 C   0  0  0  0  0  4           0  0  0
    6.7317   -7.9595    2.1296 C   0  0  0  0  0  4           0  0  0
    6.7102   -5.8528    0.9452 C   0  0  0  0  0  4           0  0  0
    6.9098   -7.2282    0.9516 C   0  0  0  0  0  4           0  0  0
    5.7477   -2.9374    3.0717 C   0  0  0  0  0  4           0  0  0
   -2.9169    0.9418   -5.5758 C   0  0  0  0  0  4           0  0  0
   -5.4303    5.2236   -8.2179 C   0  0  0  0  0  4           0  0  0
    0.0199   -1.6293   -5.2161 C   0  0  0  0  0  4           0  0  0
   -5.3504    3.8390   -8.8484 C   0  0  2  0  0  4           0  0  0
   -4.1455    2.4089   -7.2319 C   0  0  0  0  0  4           0  0  0
   -5.8929    1.5776   -8.6624 C   0  0  0  0  0  4           0  0  0
    5.7827   -7.3984    5.7285 C   0  0  0  0  0  4           0  0  0
    6.3588   -9.5114    4.4952 C   0  0  0  0  0  4           0  0  0
    5.6471   -1.5049    2.5995 C   0  0  0  0  0  4           0  0  0
   -4.2550    1.2520   -6.2349 C   0  0  0  0  0  4           0  0  0
   -6.5405    3.5886   -9.7925 C   0  0  0  0  0  4           0  0  0
   -7.0085    2.1726   -9.4947 C   0  0  0  0  0  4           0  0  0
  1 13  1  0     0  0
  1 14  1  0     0  0
  2 15  1  0     0  0
  2 31  1  0     0  0
  3 16  1  0     0  0
  3 33  1  0     0  0
  4 30  2  0     0  0
  5 32  1  0     0  0
  6 13  2  0     0  0
  6 20  1  0     0  0
  7 17  1  0     0  0
  7 18  2  0     0  0
  8 17  2  0     0  0
  8 19  1  0     0  0
  9 13  1  0     0  0
  9 18  1  0     0  0
 10 21  1  0     0  0
 10 37  1  0     0  0
 10 38  1  0     0  0
 11 22  1  0     0  0
 11 30  1  0     0  0
 12 34  1  0     0  0
 12 35  1  0     0  0
 12 36  1  0     0  0
 14 20  2  0     0  0
 14 39  1  0     0  0
 15 16  1  0     0  0
 15 24  2  0     0  0
 16 25  2  0     0  0
 18 23  1  0     0  0
 19 23  2  0     0  0
 19 24  1  0     0  0
 21 26  1  0     0  0
 21 27  2  0     0  0
 22 26  2  0     0  0
 22 28  1  0     0  0
 23 25  1  0     0  0
 27 29  1  0     0  0
 28 29  2  0     0  0
 30 39  1  0     0  0
 31 40  1  0     0  0
 32 34  1  0     0  0
 34 41  1  0     0  0
 35 40  1  0     0  0
 36 42  1  0     0  0
 41 42  1  0     0  0
M  END
> <standard_type>
pIC50

> <# Confs.>
25

> <canonical_smiles>
O=C(CC1=CN=C(NC2=NC=NC3=C2C=C(OC)C(OCCCN4[C@H](CO)CCC4)=C3)S1)NC5=CC(N(C)C)=CC=C5

> <standard_relation>
=

> <Publication_ID>
nan

> <predicted_activity_value>
7.638272163982407

> <actual_activity_value>
7.318758762624412

> <Compound>
30

> <standard_units>
nM

> hash
8995224793687527382

$$$$
30_
XXILIB    08252103423D 0   0.00000     0.00000

 42 46  0     1  0            999 V2000
    3.9708   -0.3854    0.6675 S   0  0  0  0  0  2           0  0  0
   -3.0893   -0.1417   -4.6620 O   0  0  0  0  0  2           0  0  0
   -0.1747   -0.2609   -4.8609 O   0  0  0  0  0  2           0  0  0
    5.5279   -2.0440    4.9336 O   0  0  0  0  0  2           0  0  0
   -6.2418    5.4833   -7.3034 O   0  0  0  0  0  2           0  0  0
    1.9304   -1.1709    2.0224 N   0  0  0  0  0  3           0  0  0
   -0.6609   -0.0000    1.1846 N   0  0  0  0  0  3           0  0  0
   -2.7580   -0.0529    0.0232 N   0  0  0  0  0  3           0  0  0
    1.4139    0.0000    0.0000 N   0  0  0  0  0  3           0  0  0
    6.2038    0.1563    9.2238 N   0  0  1  0  0  3           0  0  0
    6.1159    0.1208    4.3219 N   0  0  0  0  0  3           0  0  0
   -5.4199    2.7279   -7.8806 N   0  0  2  0  0  3           0  0  0
    2.2627   -0.5298    0.9177 C   0  0  0  0  0  4           0  0  0
    4.2659   -1.2271    2.1288 C   0  0  0  0  0  4           0  0  0
   -2.2521   -0.1366   -3.5823 C   0  0  0  0  0  4           0  0  0
   -0.8636   -0.1874   -3.6774 C   0  0  0  0  0  4           0  0  0
   -1.9997   -0.0184    1.1284 C   0  0  0  0  0  4           0  0  0
    0.0000    0.0000    0.0000 C   0  0  0  0  0  4           0  0  0
   -2.1102   -0.0786   -1.1483 C   0  0  0  0  0  4           0  0  0
    3.0614   -1.5655    2.7072 C   0  0  0  0  0  4           0  0  0
    6.3624    0.7975    8.0127 C   0  0  0  0  0  4           0  0  0
    6.3148    0.7786    5.5512 C   0  0  0  0  0  4           0  0  0
   -0.7028   -0.0620   -1.2307 C   0  0  0  0  0  4           0  0  0
   -2.8570   -0.1182   -2.3226 C   0  0  0  0  0  4           0  0  0
   -0.0973   -0.1204   -2.5117 C   0  0  0  0  0  4           0  0  0
    6.1603    0.1277    6.7871 C   0  0  0  0  0  4           0  0  0
    6.7349    2.1537    7.9373 C   0  0  0  0  0  4           0  0  0
    6.6792    2.1242    5.5212 C   0  0  0  0  0  4           0  0  0
    6.8915    2.8084    6.7121 C   0  0  0  0  0  4           0  0  0
    5.7567   -1.1932    4.0746 C   0  0  0  0  0  4           0  0  0
   -2.9169    0.9418   -5.5758 C   0  0  0  0  0  4           0  0  0
   -5.1810    5.1973   -8.2078 C   0  0  0  0  0  4           0  0  0
    0.0199   -1.6293   -5.2161 C   0  0  0  0  0  4           0  0  0
   -5.3799    3.8292   -8.8481 C   0  0  2  0  0  4           0  0  0
   -4.1455    2.4089   -7.2319 C   0  0  0  0  0  4           0  0  0
   -6.0036    1.5971   -8.6030 C   0  0  0  0  0  4           0  0  0
    5.8186   -1.2466    9.2663 C   0  0  0  0  0  4           0  0  0
    6.4568    0.8663   10.4688 C   0  0  0  0  0  4           0  0  0
    5.6471   -1.5049    2.5995 C   0  0  0  0  0  4           0  0  0
   -4.2550    1.2520   -6.2349 C   0  0  0  0  0  4           0  0  0
   -6.7391    3.7042   -9.5444 C   0  0  0  0  0  4           0  0  0
   -7.1295    2.2362   -9.4012 C   0  0  0  0  0  4           0  0  0
  1 13  1  0     0  0
  1 14  1  0     0  0
  2 15  1  0     0  0
  2 31  1  0     0  0
  3 16  1  0     0  0
  3 33  1  0     0  0
  4 30  2  0     0  0
  5 32  1  0     0  0
  6 13  2  0     0  0
  6 20  1  0     0  0
  7 17  1  0     0  0
  7 18  2  0     0  0
  8 17  2  0     0  0
  8 19  1  0     0  0
  9 13  1  0     0  0
  9 18  1  0     0  0
 10 21  1  0     0  0
 10 37  1  0     0  0
 10 38  1  0     0  0
 11 22  1  0     0  0
 11 30  1  0     0  0
 12 34  1  0     0  0
 12 35  1  0     0  0
 12 36  1  0     0  0
 14 20  2  0     0  0
 14 39  1  0     0  0
 15 16  1  0     0  0
 15 24  2  0     0  0
 16 25  2  0     0  0
 18 23  1  0     0  0
 19 23  2  0     0  0
 19 24  1  0     0  0
 21 26  1  0     0  0
 21 27  2  0     0  0
 22 26  2  0     0  0
 22 28  1  0     0  0
 23 25  1  0     0  0
 27 29  1  0     0  0
 28 29  2  0     0  0
 30 39  1  0     0  0
 31 40  1  0     0  0
 32 34  1  0     0  0
 34 41  1  0     0  0
 35 40  1  0     0  0
 36 42  1  0     0  0
 41 42  1  0     0  0
M  END
> <standard_type>
pIC50

> <# Confs.>
25

> <canonical_smiles>
O=C(CC1=CN=C(NC2=NC=NC3=C2C=C(OC)C(OCCCN4[C@H](CO)CCC4)=C3)S1)NC5=CC(N(C)C)=CC=C5

> <standard_relation>
=

> <Publication_ID>
nan

> <predicted_activity_value>
7.638272163982407

> <actual_activity_value>
7.318758762624412

> <Compound>
30

> <standard_units>
nM

> hash
8995224793687527382

$$$$
30_
XXILIB    08252103423D 0   0.00000     0.00000

 42 46  0     1  0            999 V2000
    3.9708   -0.3854    0.6675 S   0  0  0  0  0  2           0  0  0
   -3.0893   -0.1417   -4.6620 O   0  0  0  0  0  2           0  0  0
   -0.1747   -0.2609   -4.8609 O   0  0  0  0  0  2           0  0  0
    6.7016   -2.9179    0.9734 O   0  0  0  0  0  2           0  0  0
   -5.9074    0.0052  -10.5602 O   0  0  0  0  0  2           0  0  0
    1.9304   -1.1709    2.0224 N   0  0  0  0  0  3           0  0  0
   -0.6609    0.0000    1.1846 N   0  0  0  0  0  3           0  0  0
   -2.7580   -0.0529    0.0232 N   0  0  0  0  0  3           0  0  0
    1.4139   -0.0000   -0.0000 N   0  0  0  0  0  3           0  0  0
    7.6660   -7.6464    0.3286 N   0  0  1  0  0  3           0  0  0
    5.7994   -3.8981    2.8790 N   0  0  0  0  0  3           0  0  0
   -6.0915    0.3204   -7.6502 N   0  0  2  0  0  3           0  0  0
    2.2627   -0.5298    0.9177 C   0  0  0  0  0  4           0  0  0
    4.2659   -1.2271    2.1288 C   0  0  0  0  0  4           0  0  0
   -2.2521   -0.1366   -3.5823 C   0  0  0  0  0  4           0  0  0
   -0.8636   -0.1874   -3.6774 C   0  0  0  0  0  4           0  0  0
   -1.9997   -0.0184    1.1284 C   0  0  0  0  0  4           0  0  0
    0.0000   -0.0000    0.0000 C   0  0  0  0  0  4           0  0  0
   -2.1102   -0.0786   -1.1483 C   0  0  0  0  0  4           0  0  0
    3.0614   -1.5655    2.7072 C   0  0  0  0  0  4           0  0  0
    7.0049   -7.1543    1.4348 C   0  0  0  0  0  4           0  0  0
    6.0656   -5.2711    2.7127 C   0  0  0  0  0  4           0  0  0
   -0.7028   -0.0620   -1.2307 C   0  0  0  0  0  4           0  0  0
   -2.8570   -0.1182   -2.3226 C   0  0  0  0  0  4           0  0  0
   -0.0973   -0.1204   -2.5117 C   0  0  0  0  0  4           0  0  0
    6.7440   -5.7761    1.5903 C   0  0  0  0  0  4           0  0  0
    6.5570   -8.0021    2.4664 C   0  0  0  0  0  4           0  0  0
    5.6337   -6.1460    3.7090 C   0  0  0  0  0  4           0  0  0
    5.8821   -7.5080    3.5864 C   0  0  0  0  0  4           0  0  0
    6.1160   -2.8338    2.0522 C   0  0  0  0  0  4           0  0  0
   -2.9169    0.9418   -5.5758 C   0  0  0  0  0  4           0  0  0
   -5.9158   -1.1200   -9.6889 C   0  0  0  0  0  4           0  0  0
    0.0199   -1.6293   -5.2161 C   0  0  0  0  0  4           0  0  0
   -6.6699   -0.7957   -8.4055 C   0  0  2  0  0  4           0  0  0
   -4.8039    0.0485   -7.0060 C   0  0  0  0  0  4           0  0  0
   -7.1345    0.7367   -6.7121 C   0  0  0  0  0  4           0  0  0
    8.1163   -6.7424   -0.7194 C   0  0  0  0  0  4           0  0  0
    7.9523   -9.0690    0.2174 C   0  0  0  0  0  4           0  0  0
    5.6471   -1.5049    2.5995 C   0  0  0  0  0  4           0  0  0
   -4.2550    1.2520   -6.2349 C   0  0  0  0  0  4           0  0  0
   -8.0960   -0.3047   -8.6763 C   0  0  0  0  0  4           0  0  0
   -8.4019    0.6790   -7.5508 C   0  0  0  0  0  4           0  0  0
  1 13  1  0     0  0
  1 14  1  0     0  0
  2 15  1  0     0  0
  2 31  1  0     0  0
  3 16  1  0     0  0
  3 33  1  0     0  0
  4 30  2  0     0  0
  5 32  1  0     0  0
  6 13  2  0     0  0
  6 20  1  0     0  0
  7 17  1  0     0  0
  7 18  2  0     0  0
  8 17  2  0     0  0
  8 19  1  0     0  0
  9 13  1  0     0  0
  9 18  1  0     0  0
 10 21  1  0     0  0
 10 37  1  0     0  0
 10 38  1  0     0  0
 11 22  1  0     0  0
 11 30  1  0     0  0
 12 34  1  0     0  0
 12 35  1  0     0  0
 12 36  1  0     0  0
 14 20  2  0     0  0
 14 39  1  0     0  0
 15 16  1  0     0  0
 15 24  2  0     0  0
 16 25  2  0     0  0
 18 23  1  0     0  0
 19 23  2  0     0  0
 19 24  1  0     0  0
 21 26  1  0     0  0
 21 27  2  0     0  0
 22 26  2  0     0  0
 22 28  1  0     0  0
 23 25  1  0     0  0
 27 29  1  0     0  0
 28 29  2  0     0  0
 30 39  1  0     0  0
 31 40  1  0     0  0
 32 34  1  0     0  0
 34 41  1  0     0  0
 35 40  1  0     0  0
 36 42  1  0     0  0
 41 42  1  0     0  0
M  END
> <standard_type>
pIC50

> <# Confs.>
25

> <canonical_smiles>
O=C(CC1=CN=C(NC2=NC=NC3=C2C=C(OC)C(OCCCN4[C@H](CO)CCC4)=C3)S1)NC5=CC(N(C)C)=CC=C5

> <standard_relation>
=

> <Publication_ID>
nan

> <predicted_activity_value>
7.638272163982407

> <actual_activity_value>
7.318758762624412

> <Compound>
30

> <standard_units>
nM

> hash
8995224793687527382

$$$$
30_
XXILIB    08252103423D 0   0.00000     0.00000

 42 46  0     1  0            999 V2000
    3.9708   -0.3854    0.6675 S   0  0  0  0  0  2           0  0  0
   -3.0893   -0.1417   -4.6620 O   0  0  0  0  0  2           0  0  0
   -0.1747   -0.2609   -4.8609 O   0  0  0  0  0  2           0  0  0
    6.7198    0.6031    2.9979 O   0  0  0  0  0  2           0  0  0
   -3.0451   -3.1690   -7.6432 O   0  0  0  0  0  2           0  0  0
    1.9304   -1.1709    2.0224 N   0  0  0  0  0  3           0  0  0
   -0.6609    0.0000    1.1846 N   0  0  0  0  0  3           0  0  0
   -2.7580   -0.0529    0.0232 N   0  0  0  0  0  3           0  0  0
    1.4139   -0.0000   -0.0000 N   0  0  0  0  0  3           0  0  0
    7.7399    3.5228    6.7582 N   0  0  1  0  0  3           0  0  0
    5.8452   -0.5589    4.8120 N   0  0  0  0  0  3           0  0  0
   -3.9108   -0.4007   -8.0771 N   0  0  2  0  0  3           0  0  0
    2.2627   -0.5298    0.9177 C   0  0  0  0  0  4           0  0  0
    4.2659   -1.2271    2.1288 C   0  0  0  0  0  4           0  0  0
   -2.2521   -0.1366   -3.5823 C   0  0  0  0  0  4           0  0  0
   -0.8636   -0.1874   -3.6774 C   0  0  0  0  0  4           0  0  0
   -1.9997   -0.0184    1.1284 C   0  0  0  0  0  4           0  0  0
    0.0000   -0.0000    0.0000 C   0  0  0  0  0  4           0  0  0
   -2.1102   -0.0786   -1.1483 C   0  0  0  0  0  4           0  0  0
    3.0614   -1.5655    2.7072 C   0  0  0  0  0  4           0  0  0
    7.0798    2.3191    6.8938 C   0  0  0  0  0  4           0  0  0
    6.1316    0.2686    5.9150 C   0  0  0  0  0  4           0  0  0
   -0.7028   -0.0620   -1.2307 C   0  0  0  0  0  4           0  0  0
   -2.8570   -0.1182   -2.3226 C   0  0  0  0  0  4           0  0  0
   -0.0973   -0.1204   -2.5117 C   0  0  0  0  0  4           0  0  0
    6.7983    1.4984    5.7807 C   0  0  0  0  0  4           0  0  0
    6.6522    1.8477    8.1502 C   0  0  0  0  0  4           0  0  0
    5.7301   -0.1640    7.1784 C   0  0  0  0  0  4           0  0  0
    5.9877    0.6261    8.2924 C   0  0  0  0  0  4           0  0  0
    6.1287   -0.3671    3.4706 C   0  0  0  0  0  4           0  0  0
   -2.9169    0.9418   -5.5758 C   0  0  0  0  0  4           0  0  0
   -4.3660   -2.8613   -8.0742 C   0  0  0  0  0  4           0  0  0
    0.0199   -1.6293   -5.2161 C   0  0  0  0  0  4           0  0  0
   -4.3819   -1.5522   -8.8534 C   0  0  2  0  0  4           0  0  0
   -4.8039    0.0485   -7.0060 C   0  0  0  0  0  4           0  0  0
   -3.6173    0.6393   -9.0638 C   0  0  0  0  0  4           0  0  0
    8.1677    3.9810    5.4446 C   0  0  0  0  0  4           0  0  0
    7.9809    4.3628    7.9219 C   0  0  0  0  0  4           0  0  0
    5.6471   -1.5049    2.5995 C   0  0  0  0  0  4           0  0  0
   -4.2550    1.2520   -6.2349 C   0  0  0  0  0  4           0  0  0
   -3.4111   -1.5684  -10.0388 C   0  0  0  0  0  4           0  0  0
   -2.9337   -0.1267  -10.1858 C   0  0  0  0  0  4           0  0  0
  1 13  1  0     0  0
  1 14  1  0     0  0
  2 15  1  0     0  0
  2 31  1  0     0  0
  3 16  1  0     0  0
  3 33  1  0     0  0
  4 30  2  0     0  0
  5 32  1  0     0  0
  6 13  2  0     0  0
  6 20  1  0     0  0
  7 17  1  0     0  0
  7 18  2  0     0  0
  8 17  2  0     0  0
  8 19  1  0     0  0
  9 13  1  0     0  0
  9 18  1  0     0  0
 10 21  1  0     0  0
 10 37  1  0     0  0
 10 38  1  0     0  0
 11 22  1  0     0  0
 11 30  1  0     0  0
 12 34  1  0     0  0
 12 35  1  0     0  0
 12 36  1  0     0  0
 14 20  2  0     0  0
 14 39  1  0     0  0
 15 16  1  0     0  0
 15 24  2  0     0  0
 16 25  2  0     0  0
 18 23  1  0     0  0
 19 23  2  0     0  0
 19 24  1  0     0  0
 21 26  1  0     0  0
 21 27  2  0     0  0
 22 26  2  0     0  0
 22 28  1  0     0  0
 23 25  1  0     0  0
 27 29  1  0     0  0
 28 29  2  0     0  0
 30 39  1  0     0  0
 31 40  1  0     0  0
 32 34  1  0     0  0
 34 41  1  0     0  0
 35 40  1  0     0  0
 36 42  1  0     0  0
 41 42  1  0     0  0
M  END
> <standard_type>
pIC50

> <# Confs.>
25

> <canonical_smiles>
O=C(CC1=CN=C(NC2=NC=NC3=C2C=C(OC)C(OCCCN4[C@H](CO)CCC4)=C3)S1)NC5=CC(N(C)C)=CC=C5

> <standard_relation>
=

> <Publication_ID>
nan

> <predicted_activity_value>
7.638272163982407

> <actual_activity_value>
7.318758762624412

> <Compound>
30

> <standard_units>
nM

> hash
8995224793687527382

$$$$
30_
XXILIB    08252103423D 0   0.00000     0.00000

 42 46  0     1  0            999 V2000
    3.9708   -0.3854    0.6675 S   0  0  0  0  0  2           0  0  0
   -3.0893   -0.1417   -4.6620 O   0  0  0  0  0  2           0  0  0
   -0.1747   -0.2609   -4.8609 O   0  0  0  0  0  2           0  0  0
    5.9493   -0.3646    4.6879 O   0  0  0  0  0  2           0  0  0
   -6.6562    5.3801   -7.5122 O   0  0  0  0  0  2           0  0  0
    1.9304   -1.1709    2.0224 N   0  0  0  0  0  3           0  0  0
   -0.6609   -0.0000    1.1846 N   0  0  0  0  0  3           0  0  0
   -2.7580   -0.0529    0.0232 N   0  0  0  0  0  3           0  0  0
    1.4139    0.0000    0.0000 N   0  0  0  0  0  3           0  0  0
    7.9168    3.7744    6.3318 N   0  0  1  0  0  3           0  0  0
    6.7551    0.6350    2.7494 N   0  0  0  0  0  3           0  0  0
   -5.4199    2.7279   -7.8806 N   0  0  2  0  0  3           0  0  0
    2.2627   -0.5298    0.9177 C   0  0  0  0  0  4           0  0  0
    4.2659   -1.2271    2.1288 C   0  0  0  0  0  4           0  0  0
   -2.2521   -0.1366   -3.5823 C   0  0  0  0  0  4           0  0  0
   -0.8636   -0.1874   -3.6774 C   0  0  0  0  0  4           0  0  0
   -1.9997   -0.0184    1.1284 C   0  0  0  0  0  4           0  0  0
    0.0000    0.0000    0.0000 C   0  0  0  0  0  4           0  0  0
   -2.1102   -0.0786   -1.1483 C   0  0  0  0  0  4           0  0  0
    3.0614   -1.5655    2.7072 C   0  0  0  0  0  4           0  0  0
    7.9155    3.4154    4.9998 C   0  0  0  0  0  4           0  0  0
    7.3286    1.8391    3.2018 C   0  0  0  0  0  4           0  0  0
   -0.7028   -0.0620   -1.2307 C   0  0  0  0  0  4           0  0  0
   -2.8570   -0.1182   -2.3226 C   0  0  0  0  0  4           0  0  0
   -0.0973   -0.1204   -2.5117 C   0  0  0  0  0  4           0  0  0
    7.3376    2.2059    4.5584 C   0  0  0  0  0  4           0  0  0
    8.4916    4.2375    4.0119 C   0  0  0  0  0  4           0  0  0
    7.9050    2.6850    2.2548 C   0  0  0  0  0  4           0  0  0
    8.4876    3.8798    2.6605 C   0  0  0  0  0  4           0  0  0
    6.1287   -0.3671    3.4706 C   0  0  0  0  0  4           0  0  0
   -2.9169    0.9418   -5.5758 C   0  0  0  0  0  4           0  0  0
   -5.4303    5.2236   -8.2179 C   0  0  0  0  0  4           0  0  0
    0.0199   -1.6293   -5.2161 C   0  0  0  0  0  4           0  0  0
   -5.3504    3.8390   -8.8484 C   0  0  2  0  0  4           0  0  0
   -4.1455    2.4089   -7.2319 C   0  0  0  0  0  4           0  0  0
   -5.8929    1.5776   -8.6624 C   0  0  0  0  0  4           0  0  0
    7.3133    2.9011    7.3276 C   0  0  0  0  0  4           0  0  0
    8.5548    5.0110    6.7579 C   0  0  0  0  0  4           0  0  0
    5.6471   -1.5049    2.5995 C   0  0  0  0  0  4           0  0  0
   -4.2550    1.2520   -6.2349 C   0  0  0  0  0  4           0  0  0
   -6.5405    3.5886   -9.7925 C   0  0  0  0  0  4           0  0  0
   -7.0085    2.1726   -9.4947 C   0  0  0  0  0  4           0  0  0
  1 13  1  0     0  0
  1 14  1  0     0  0
  2 15  1  0     0  0
  2 31  1  0     0  0
  3 16  1  0     0  0
  3 33  1  0     0  0
  4 30  2  0     0  0
  5 32  1  0     0  0
  6 13  2  0     0  0
  6 20  1  0     0  0
  7 17  1  0     0  0
  7 18  2  0     0  0
  8 17  2  0     0  0
  8 19  1  0     0  0
  9 13  1  0     0  0
  9 18  1  0     0  0
 10 21  1  0     0  0
 10 37  1  0     0  0
 10 38  1  0     0  0
 11 22  1  0     0  0
 11 30  1  0     0  0
 12 34  1  0     0  0
 12 35  1  0     0  0
 12 36  1  0     0  0
 14 20  2  0     0  0
 14 39  1  0     0  0
 15 16  1  0     0  0
 15 24  2  0     0  0
 16 25  2  0     0  0
 18 23  1  0     0  0
 19 23  2  0     0  0
 19 24  1  0     0  0
 21 26  1  0     0  0
 21 27  2  0     0  0
 22 26  2  0     0  0
 22 28  1  0     0  0
 23 25  1  0     0  0
 27 29  1  0     0  0
 28 29  2  0     0  0
 30 39  1  0     0  0
 31 40  1  0     0  0
 32 34  1  0     0  0
 34 41  1  0     0  0
 35 40  1  0     0  0
 36 42  1  0     0  0
 41 42  1  0     0  0
M  END
> <standard_type>
pIC50

> <# Confs.>
25

> <canonical_smiles>
O=C(CC1=CN=C(NC2=NC=NC3=C2C=C(OC)C(OCCCN4[C@H](CO)CCC4)=C3)S1)NC5=CC(N(C)C)=CC=C5

> <standard_relation>
=

> <Publication_ID>
nan

> <predicted_activity_value>
7.638272163982407

> <actual_activity_value>
7.318758762624412

> <Compound>
30

> <standard_units>
nM

> hash
8995224793687527382

$$$$
30_
XXILIB    08252103423D 0   0.00000     0.00000

 42 46  0     1  0            999 V2000
    3.9708   -0.3854    0.6675 S   0  0  0  0  0  2           0  0  0
   -3.0893   -0.1417   -4.6620 O   0  0  0  0  0  2           0  0  0
   -0.1747   -0.2609   -4.8609 O   0  0  0  0  0  2           0  0  0
    6.7016   -2.9179    0.9734 O   0  0  0  0  0  2           0  0  0
   -3.0451   -3.1690   -7.6432 O   0  0  0  0  0  2           0  0  0
    1.9304   -1.1709    2.0224 N   0  0  0  0  0  3           0  0  0
   -0.6609    0.0000    1.1846 N   0  0  0  0  0  3           0  0  0
   -2.7580   -0.0529    0.0232 N   0  0  0  0  0  3           0  0  0
    1.4139   -0.0000   -0.0000 N   0  0  0  0  0  3           0  0  0
    7.6660   -7.6464    0.3286 N   0  0  1  0  0  3           0  0  0
    5.7994   -3.8981    2.8790 N   0  0  0  0  0  3           0  0  0
   -3.9108   -0.4007   -8.0771 N   0  0  2  0  0  3           0  0  0
    2.2627   -0.5298    0.9177 C   0  0  0  0  0  4           0  0  0
    4.2659   -1.2271    2.1288 C   0  0  0  0  0  4           0  0  0
   -2.2521   -0.1366   -3.5823 C   0  0  0  0  0  4           0  0  0
   -0.8636   -0.1874   -3.6774 C   0  0  0  0  0  4           0  0  0
   -1.9997   -0.0184    1.1284 C   0  0  0  0  0  4           0  0  0
    0.0000   -0.0000    0.0000 C   0  0  0  0  0  4           0  0  0
   -2.1102   -0.0786   -1.1483 C   0  0  0  0  0  4           0  0  0
    3.0614   -1.5655    2.7072 C   0  0  0  0  0  4           0  0  0
    7.0049   -7.1543    1.4348 C   0  0  0  0  0  4           0  0  0
    6.0656   -5.2711    2.7127 C   0  0  0  0  0  4           0  0  0
   -0.7028   -0.0620   -1.2307 C   0  0  0  0  0  4           0  0  0
   -2.8570   -0.1182   -2.3226 C   0  0  0  0  0  4           0  0  0
   -0.0973   -0.1204   -2.5117 C   0  0  0  0  0  4           0  0  0
    6.7440   -5.7761    1.5903 C   0  0  0  0  0  4           0  0  0
    6.5570   -8.0021    2.4664 C   0  0  0  0  0  4           0  0  0
    5.6337   -6.1460    3.7090 C   0  0  0  0  0  4           0  0  0
    5.8821   -7.5080    3.5864 C   0  0  0  0  0  4           0  0  0
    6.1160   -2.8338    2.0522 C   0  0  0  0  0  4           0  0  0
   -2.9169    0.9418   -5.5758 C   0  0  0  0  0  4           0  0  0
   -4.3660   -2.8613   -8.0742 C   0  0  0  0  0  4           0  0  0
    0.0199   -1.6293   -5.2161 C   0  0  0  0  0  4           0  0  0
   -4.3819   -1.5522   -8.8534 C   0  0  2  0  0  4           0  0  0
   -4.8039    0.0485   -7.0060 C   0  0  0  0  0  4           0  0  0
   -3.6173    0.6393   -9.0638 C   0  0  0  0  0  4           0  0  0
    8.1163   -6.7424   -0.7194 C   0  0  0  0  0  4           0  0  0
    7.9523   -9.0690    0.2174 C   0  0  0  0  0  4           0  0  0
    5.6471   -1.5049    2.5995 C   0  0  0  0  0  4           0  0  0
   -4.2550    1.2520   -6.2349 C   0  0  0  0  0  4           0  0  0
   -3.4111   -1.5684  -10.0388 C   0  0  0  0  0  4           0  0  0
   -2.9337   -0.1267  -10.1858 C   0  0  0  0  0  4           0  0  0
  1 13  1  0     0  0
  1 14  1  0     0  0
  2 15  1  0     0  0
  2 31  1  0     0  0
  3 16  1  0     0  0
  3 33  1  0     0  0
  4 30  2  0     0  0
  5 32  1  0     0  0
  6 13  2  0     0  0
  6 20  1  0     0  0
  7 17  1  0     0  0
  7 18  2  0     0  0
  8 17  2  0     0  0
  8 19  1  0     0  0
  9 13  1  0     0  0
  9 18  1  0     0  0
 10 21  1  0     0  0
 10 37  1  0     0  0
 10 38  1  0     0  0
 11 22  1  0     0  0
 11 30  1  0     0  0
 12 34  1  0     0  0
 12 35  1  0     0  0
 12 36  1  0     0  0
 14 20  2  0     0  0
 14 39  1  0     0  0
 15 16  1  0     0  0
 15 24  2  0     0  0
 16 25  2  0     0  0
 18 23  1  0     0  0
 19 23  2  0     0  0
 19 24  1  0     0  0
 21 26  1  0     0  0
 21 27  2  0     0  0
 22 26  2  0     0  0
 22 28  1  0     0  0
 23 25  1  0     0  0
 27 29  1  0     0  0
 28 29  2  0     0  0
 30 39  1  0     0  0
 31 40  1  0     0  0
 32 34  1  0     0  0
 34 41  1  0     0  0
 35 40  1  0     0  0
 36 42  1  0     0  0
 41 42  1  0     0  0
M  END
> <standard_type>
pIC50

> <# Confs.>
25

> <canonical_smiles>
O=C(CC1=CN=C(NC2=NC=NC3=C2C=C(OC)C(OCCCN4[C@H](CO)CCC4)=C3)S1)NC5=CC(N(C)C)=CC=C5

> <standard_relation>
=

> <Publication_ID>
nan

> <predicted_activity_value>
7.638272163982407

> <actual_activity_value>
7.318758762624412

> <Compound>
30

> <standard_units>
nM

> hash
8995224793687527382

$$$$
30_
XXILIB    08252103423D 0   0.00000     0.00000

 42 46  0     1  0            999 V2000
    3.9708   -0.3854    0.6675 S   0  0  0  0  0  2           0  0  0
   -3.0893   -0.1417   -4.6620 O   0  0  0  0  0  2           0  0  0
   -0.1747   -0.2609   -4.8609 O   0  0  0  0  0  2           0  0  0
    6.7198    0.6031    2.9979 O   0  0  0  0  0  2           0  0  0
   -5.9074    0.0052  -10.5602 O   0  0  0  0  0  2           0  0  0
    1.9304   -1.1709    2.0224 N   0  0  0  0  0  3           0  0  0
   -0.6609    0.0000    1.1846 N   0  0  0  0  0  3           0  0  0
   -2.7580   -0.0529    0.0232 N   0  0  0  0  0  3           0  0  0
    1.4139   -0.0000   -0.0000 N   0  0  0  0  0  3           0  0  0
    7.7399    3.5228    6.7582 N   0  0  1  0  0  3           0  0  0
    5.8452   -0.5589    4.8120 N   0  0  0  0  0  3           0  0  0
   -6.0915    0.3204   -7.6502 N   0  0  2  0  0  3           0  0  0
    2.2627   -0.5298    0.9177 C   0  0  0  0  0  4           0  0  0
    4.2659   -1.2271    2.1288 C   0  0  0  0  0  4           0  0  0
   -2.2521   -0.1366   -3.5823 C   0  0  0  0  0  4           0  0  0
   -0.8636   -0.1874   -3.6774 C   0  0  0  0  0  4           0  0  0
   -1.9997   -0.0184    1.1284 C   0  0  0  0  0  4           0  0  0
    0.0000   -0.0000    0.0000 C   0  0  0  0  0  4           0  0  0
   -2.1102   -0.0786   -1.1483 C   0  0  0  0  0  4           0  0  0
    3.0614   -1.5655    2.7072 C   0  0  0  0  0  4           0  0  0
    7.0798    2.3191    6.8938 C   0  0  0  0  0  4           0  0  0
    6.1316    0.2686    5.9150 C   0  0  0  0  0  4           0  0  0
   -0.7028   -0.0620   -1.2307 C   0  0  0  0  0  4           0  0  0
   -2.8570   -0.1182   -2.3226 C   0  0  0  0  0  4           0  0  0
   -0.0973   -0.1204   -2.5117 C   0  0  0  0  0  4           0  0  0
    6.7983    1.4984    5.7807 C   0  0  0  0  0  4           0  0  0
    6.6522    1.8477    8.1502 C   0  0  0  0  0  4           0  0  0
    5.7301   -0.1640    7.1784 C   0  0  0  0  0  4           0  0  0
    5.9877    0.6261    8.2924 C   0  0  0  0  0  4           0  0  0
    6.1287   -0.3671    3.4706 C   0  0  0  0  0  4           0  0  0
   -2.9169    0.9418   -5.5758 C   0  0  0  0  0  4           0  0  0
   -5.9158   -1.1200   -9.6889 C   0  0  0  0  0  4           0  0  0
    0.0199   -1.6293   -5.2161 C   0  0  0  0  0  4           0  0  0
   -6.6699   -0.7957   -8.4055 C   0  0  2  0  0  4           0  0  0
   -4.8039    0.0485   -7.0060 C   0  0  0  0  0  4           0  0  0
   -7.1345    0.7367   -6.7121 C   0  0  0  0  0  4           0  0  0
    8.1677    3.9810    5.4446 C   0  0  0  0  0  4           0  0  0
    7.9809    4.3628    7.9219 C   0  0  0  0  0  4           0  0  0
    5.6471   -1.5049    2.5995 C   0  0  0  0  0  4           0  0  0
   -4.2550    1.2520   -6.2349 C   0  0  0  0  0  4           0  0  0
   -8.0960   -0.3047   -8.6763 C   0  0  0  0  0  4           0  0  0
   -8.4019    0.6790   -7.5508 C   0  0  0  0  0  4           0  0  0
  1 13  1  0     0  0
  1 14  1  0     0  0
  2 15  1  0     0  0
  2 31  1  0     0  0
  3 16  1  0     0  0
  3 33  1  0     0  0
  4 30  2  0     0  0
  5 32  1  0     0  0
  6 13  2  0     0  0
  6 20  1  0     0  0
  7 17  1  0     0  0
  7 18  2  0     0  0
  8 17  2  0     0  0
  8 19  1  0     0  0
  9 13  1  0     0  0
  9 18  1  0     0  0
 10 21  1  0     0  0
 10 37  1  0     0  0
 10 38  1  0     0  0
 11 22  1  0     0  0
 11 30  1  0     0  0
 12 34  1  0     0  0
 12 35  1  0     0  0
 12 36  1  0     0  0
 14 20  2  0     0  0
 14 39  1  0     0  0
 15 16  1  0     0  0
 15 24  2  0     0  0
 16 25  2  0     0  0
 18 23  1  0     0  0
 19 23  2  0     0  0
 19 24  1  0     0  0
 21 26  1  0     0  0
 21 27  2  0     0  0
 22 26  2  0     0  0
 22 28  1  0     0  0
 23 25  1  0     0  0
 27 29  1  0     0  0
 28 29  2  0     0  0
 30 39  1  0     0  0
 31 40  1  0     0  0
 32 34  1  0     0  0
 34 41  1  0     0  0
 35 40  1  0     0  0
 36 42  1  0     0  0
 41 42  1  0     0  0
M  END
> <standard_type>
pIC50

> <# Confs.>
25

> <canonical_smiles>
O=C(CC1=CN=C(NC2=NC=NC3=C2C=C(OC)C(OCCCN4[C@H](CO)CCC4)=C3)S1)NC5=CC(N(C)C)=CC=C5

> <standard_relation>
=

> <Publication_ID>
nan

> <predicted_activity_value>
7.638272163982407

> <actual_activity_value>
7.318758762624412

> <Compound>
30

> <standard_units>
nM

> hash
8995224793687527382

$$$$
40_
XXILIB    08252103423D 0   0.00000     0.00000

 30 33  0     1  0            999 V2000
   -3.1092   -6.7181   -0.6035 Cl  0  0  0  0  0  1           0  0  0
   -2.5209   -4.3992    1.0870 F   0  0  0  0  0  1           0  0  0
   -4.2145   -1.7005    2.1134 O   0  0  0  0  0  2           0  0  0
    6.3722    4.2428    4.7523 N   0  0  0  0  0  3           0  0  0
    5.2738    3.7545    4.1578 N   0  0  0  0  0  3           0  0  0
    3.1779    0.8896    1.5024 N   0  0  0  0  0  3           0  0  0
    4.9163    1.6634    2.9846 N   0  0  0  0  0  3           0  0  0
   -2.6092   -1.0636    0.5468 N   0  0  2  0  0  3           0  0  0
    0.0000    0.0000    0.0000 N   0  0  2  0  0  3           0  0  0
   -3.8568   -5.1692   -0.6983 C   0  0  0  0  0  4           0  0  0
   -3.4750   -4.1500    0.1758 C   0  0  0  0  0  4           0  0  0
    5.6636    2.5642    3.6755 C   0  0  0  0  0  4           0  0  0
    3.8226    1.9144    2.1218 C   0  0  0  0  0  4           0  0  0
    7.4599    3.4219    4.6757 C   0  0  0  0  0  4           0  0  0
    2.1381    1.1717    0.6765 C   0  0  0  0  0  4           0  0  0
   -4.0748   -2.8859    0.1070 C   0  0  0  0  0  4           0  0  0
   -4.8433   -4.9392   -1.6539 C   0  0  0  0  0  4           0  0  0
    7.0297    2.3174    3.9777 C   0  0  0  0  0  4           0  0  0
    3.4404    3.2403    1.9085 C   0  0  0  0  0  4           0  0  0
    1.7109    2.4699    0.4265 C   0  0  0  0  0  4           0  0  0
   -5.0681   -2.6622   -0.8562 C   0  0  0  0  0  4           0  0  0
   -5.4470   -3.6853   -1.7307 C   0  0  0  0  0  4           0  0  0
    2.3758    3.5129    1.0553 C   0  0  0  0  0  4           0  0  0
   -3.6532   -1.8307    1.0324 C   0  0  0  0  0  4           0  0  0
    1.4665   -0.0000    0.0000 C   0  0  0  0  0  4           0  0  0
   -2.0721    0.0290    1.3517 C   0  0  0  0  0  4           0  0  0
   -2.0344   -1.1723   -0.7965 C   0  0  0  0  0  4           0  0  0
   -0.5438    0.0000    1.3711 C   0  0  0  0  0  4           0  0  0
   -0.5059   -1.1697   -0.7404 C   0  0  0  0  0  4           0  0  0
    8.7646    3.7756    5.2731 C   0  0  0  0  0  4           0  0  0
  1 10  1  0     0  0
  2 11  1  0     0  0
  3 24  2  0     0  0
  4  5  1  0     0  0
  4 14  1  0     0  0
  5 12  2  0     0  0
  6 13  1  0     0  0
  6 15  2  0     0  0
  7 12  1  0     0  0
  7 13  1  0     0  0
  8 24  1  0     0  0
  8 26  1  0     0  0
  8 27  1  0     0  0
  9 25  1  0     0  0
  9 28  1  0     0  0
  9 29  1  0     0  0
 10 11  1  0     0  0
 10 17  2  0     0  0
 11 16  2  0     0  0
 12 18  1  0     0  0
 13 19  2  0     0  0
 14 18  2  0     0  0
 14 30  1  0     0  0
 15 20  1  0     0  0
 15 25  1  0     0  0
 16 21  1  0     0  0
 16 24  1  0     0  0
 17 22  1  0     0  0
 19 23  1  0     0  0
 20 23  2  0     0  0
 21 22  2  0     0  0
 26 28  1  0     0  0
 27 29  1  0     0  0
M  END
> <standard_type>
pIC50

> <# Confs.>
25

> <canonical_smiles>
ClC1=CC=CC(C(N2CCN(CC3=NC(NC4=NNC(C)=C4)=CC=C3)CC2)=O)=C1F

> <standard_relation>
=

> <Publication_ID>
nan

> <predicted_activity_value>
6.275724130399211

> <actual_activity_value>
6.113509274827518

> <Compound>
40

> <standard_units>
nM

> hash
10155212887812467807

$$$$
40_
XXILIB    08252103423D 0   0.00000     0.00000

 30 33  0     1  0            999 V2000
   -3.1092   -6.7181   -0.6035 Cl  0  0  0  0  0  1           0  0  0
   -2.5209   -4.3992    1.0870 F   0  0  0  0  0  1           0  0  0
   -4.2145   -1.7005    2.1134 O   0  0  0  0  0  2           0  0  0
    5.0299   -2.6149   -6.7168 N   0  0  0  0  0  3           0  0  0
    4.7749   -1.9542   -5.5780 N   0  0  0  0  0  3           0  0  0
    2.4109   -1.2111   -1.9024 N   0  0  0  0  0  3           0  0  0
    3.2957   -2.5025   -3.7373 N   0  0  0  0  0  3           0  0  0
   -2.6092   -1.0636    0.5468 N   0  0  2  0  0  3           0  0  0
    0.0000    0.0000    0.0000 N   0  0  2  0  0  3           0  0  0
   -3.8568   -5.1692   -0.6983 C   0  0  0  0  0  4           0  0  0
   -3.4750   -4.1500    0.1758 C   0  0  0  0  0  4           0  0  0
    3.8784   -2.7265   -4.9446 C   0  0  0  0  0  4           0  0  0
    3.0017   -1.2599   -3.1263 C   0  0  0  0  0  4           0  0  0
    4.3364   -3.7827   -6.8518 C   0  0  0  0  0  4           0  0  0
    2.1381    0.0000   -1.3529 C   0  0  0  0  0  4           0  0  0
   -4.0748   -2.8859    0.1070 C   0  0  0  0  0  4           0  0  0
   -4.8433   -4.9392   -1.6539 C   0  0  0  0  0  4           0  0  0
    3.5748   -3.8837   -5.7108 C   0  0  0  0  0  4           0  0  0
    3.3142   -0.0910   -3.8231 C   0  0  0  0  0  4           0  0  0
    2.4272    1.1969   -1.9967 C   0  0  0  0  0  4           0  0  0
   -5.0681   -2.6622   -0.8562 C   0  0  0  0  0  4           0  0  0
   -5.4470   -3.6853   -1.7307 C   0  0  0  0  0  4           0  0  0
    3.0239    1.1423   -3.2482 C   0  0  0  0  0  4           0  0  0
   -3.6532   -1.8307    1.0324 C   0  0  0  0  0  4           0  0  0
    1.4665    0.0000   -0.0000 C   0  0  0  0  0  4           0  0  0
   -2.0721    0.0290    1.3517 C   0  0  0  0  0  4           0  0  0
   -2.0344   -1.1723   -0.7965 C   0  0  0  0  0  4           0  0  0
   -0.5438    0.0000    1.3711 C   0  0  0  0  0  4           0  0  0
   -0.5059   -1.1697   -0.7404 C   0  0  0  0  0  4           0  0  0
    4.4812   -4.6596   -8.0325 C   0  0  0  0  0  4           0  0  0
  1 10  1  0     0  0
  2 11  1  0     0  0
  3 24  2  0     0  0
  4  5  1  0     0  0
  4 14  1  0     0  0
  5 12  2  0     0  0
  6 13  1  0     0  0
  6 15  2  0     0  0
  7 12  1  0     0  0
  7 13  1  0     0  0
  8 24  1  0     0  0
  8 26  1  0     0  0
  8 27  1  0     0  0
  9 25  1  0     0  0
  9 28  1  0     0  0
  9 29  1  0     0  0
 10 11  1  0     0  0
 10 17  2  0     0  0
 11 16  2  0     0  0
 12 18  1  0     0  0
 13 19  2  0     0  0
 14 18  2  0     0  0
 14 30  1  0     0  0
 15 20  1  0     0  0
 15 25  1  0     0  0
 16 21  1  0     0  0
 16 24  1  0     0  0
 17 22  1  0     0  0
 19 23  1  0     0  0
 20 23  2  0     0  0
 21 22  2  0     0  0
 26 28  1  0     0  0
 27 29  1  0     0  0
M  END
> <standard_type>
pIC50

> <# Confs.>
25

> <canonical_smiles>
ClC1=CC=CC(C(N2CCN(CC3=NC(NC4=NNC(C)=C4)=CC=C3)CC2)=O)=C1F

> <standard_relation>
=

> <Publication_ID>
nan

> <predicted_activity_value>
6.275724130399211

> <actual_activity_value>
6.113509274827518

> <Compound>
40

> <standard_units>
nM

> hash
10155212887812467807

$$$$
40_
XXILIB    08252103423D 0   0.00000     0.00000

 30 33  0     1  0            999 V2000
   -6.7265   -3.2731   -2.8834 Cl  0  0  0  0  0  1           0  0  0
   -5.6424   -1.4066   -0.9029 F   0  0  0  0  0  1           0  0  0
   -4.2145   -1.7005    2.1134 O   0  0  0  0  0  2           0  0  0
    6.3722    4.2428    4.7523 N   0  0  0  0  0  3           0  0  0
    5.2738    3.7545    4.1578 N   0  0  0  0  0  3           0  0  0
    3.1779    0.8896    1.5024 N   0  0  0  0  0  3           0  0  0
    4.9163    1.6634    2.9846 N   0  0  0  0  0  3           0  0  0
   -2.6092   -1.0636    0.5468 N   0  0  2  0  0  3           0  0  0
    0.0000    0.0000    0.0000 N   0  0  2  0  0  3           0  0  0
   -5.4954   -3.6120   -1.7273 C   0  0  0  0  0  4           0  0  0
   -5.0741   -2.6213   -0.8386 C   0  0  0  0  0  4           0  0  0
    5.6636    2.5642    3.6755 C   0  0  0  0  0  4           0  0  0
    3.8226    1.9144    2.1218 C   0  0  0  0  0  4           0  0  0
    7.4599    3.4219    4.6757 C   0  0  0  0  0  4           0  0  0
    2.1381    1.1717    0.6765 C   0  0  0  0  0  4           0  0  0
   -4.0748   -2.8859    0.1070 C   0  0  0  0  0  4           0  0  0
   -4.9241   -4.8812   -1.6831 C   0  0  0  0  0  4           0  0  0
    7.0297    2.3174    3.9777 C   0  0  0  0  0  4           0  0  0
    3.4404    3.2403    1.9085 C   0  0  0  0  0  4           0  0  0
    1.7109    2.4699    0.4265 C   0  0  0  0  0  4           0  0  0
   -3.5033   -4.1650    0.1444 C   0  0  0  0  0  4           0  0  0
   -3.9288   -5.1550   -0.7467 C   0  0  0  0  0  4           0  0  0
    2.3758    3.5129    1.0553 C   0  0  0  0  0  4           0  0  0
   -3.6532   -1.8307    1.0324 C   0  0  0  0  0  4           0  0  0
    1.4665   -0.0000    0.0000 C   0  0  0  0  0  4           0  0  0
   -2.0721    0.0290    1.3517 C   0  0  0  0  0  4           0  0  0
   -2.0344   -1.1723   -0.7965 C   0  0  0  0  0  4           0  0  0
   -0.5438    0.0000    1.3711 C   0  0  0  0  0  4           0  0  0
   -0.5059   -1.1697   -0.7404 C   0  0  0  0  0  4           0  0  0
    8.7646    3.7756    5.2731 C   0  0  0  0  0  4           0  0  0
  1 10  1  0     0  0
  2 11  1  0     0  0
  3 24  2  0     0  0
  4  5  1  0     0  0
  4 14  1  0     0  0
  5 12  2  0     0  0
  6 13  1  0     0  0
  6 15  2  0     0  0
  7 12  1  0     0  0
  7 13  1  0     0  0
  8 24  1  0     0  0
  8 26  1  0     0  0
  8 27  1  0     0  0
  9 25  1  0     0  0
  9 28  1  0     0  0
  9 29  1  0     0  0
 10 11  1  0     0  0
 10 17  2  0     0  0
 11 16  2  0     0  0
 12 18  1  0     0  0
 13 19  2  0     0  0
 14 18  2  0     0  0
 14 30  1  0     0  0
 15 20  1  0     0  0
 15 25  1  0     0  0
 16 21  1  0     0  0
 16 24  1  0     0  0
 17 22  1  0     0  0
 19 23  1  0     0  0
 20 23  2  0     0  0
 21 22  2  0     0  0
 26 28  1  0     0  0
 27 29  1  0     0  0
M  END
> <standard_type>
pIC50

> <# Confs.>
25

> <canonical_smiles>
ClC1=CC=CC(C(N2CCN(CC3=NC(NC4=NNC(C)=C4)=CC=C3)CC2)=O)=C1F

> <standard_relation>
=

> <Publication_ID>
nan

> <predicted_activity_value>
6.275724130399211

> <actual_activity_value>
6.113509274827518

> <Compound>
40

> <standard_units>
nM

> hash
10155212887812467807

$$$$
40_
XXILIB    08252103423D 0   0.00000     0.00000

 30 33  0     1  0            999 V2000
   -6.7265   -3.2731   -2.8834 Cl  0  0  0  0  0  1           0  0  0
   -5.6424   -1.4066   -0.9029 F   0  0  0  0  0  1           0  0  0
   -4.2145   -1.7005    2.1134 O   0  0  0  0  0  2           0  0  0
    5.0299   -2.6149   -6.7168 N   0  0  0  0  0  3           0  0  0
    4.7749   -1.9542   -5.5780 N   0  0  0  0  0  3           0  0  0
    2.4109   -1.2111   -1.9024 N   0  0  0  0  0  3           0  0  0
    3.2957   -2.5025   -3.7373 N   0  0  0  0  0  3           0  0  0
   -2.6092   -1.0636    0.5468 N   0  0  2  0  0  3           0  0  0
    0.0000    0.0000    0.0000 N   0  0  2  0  0  3           0  0  0
   -5.4954   -3.6120   -1.7273 C   0  0  0  0  0  4           0  0  0
   -5.0741   -2.6213   -0.8386 C   0  0  0  0  0  4           0  0  0
    3.8784   -2.7265   -4.9446 C   0  0  0  0  0  4           0  0  0
    3.0017   -1.2599   -3.1263 C   0  0  0  0  0  4           0  0  0
    4.3364   -3.7827   -6.8518 C   0  0  0  0  0  4           0  0  0
    2.1381    0.0000   -1.3529 C   0  0  0  0  0  4           0  0  0
   -4.0748   -2.8859    0.1070 C   0  0  0  0  0  4           0  0  0
   -4.9241   -4.8812   -1.6831 C   0  0  0  0  0  4           0  0  0
    3.5748   -3.8837   -5.7108 C   0  0  0  0  0  4           0  0  0
    3.3142   -0.0910   -3.8231 C   0  0  0  0  0  4           0  0  0
    2.4272    1.1969   -1.9967 C   0  0  0  0  0  4           0  0  0
   -3.5033   -4.1650    0.1444 C   0  0  0  0  0  4           0  0  0
   -3.9288   -5.1550   -0.7467 C   0  0  0  0  0  4           0  0  0
    3.0239    1.1423   -3.2482 C   0  0  0  0  0  4           0  0  0
   -3.6532   -1.8307    1.0324 C   0  0  0  0  0  4           0  0  0
    1.4665    0.0000   -0.0000 C   0  0  0  0  0  4           0  0  0
   -2.0721    0.0290    1.3517 C   0  0  0  0  0  4           0  0  0
   -2.0344   -1.1723   -0.7965 C   0  0  0  0  0  4           0  0  0
   -0.5438    0.0000    1.3711 C   0  0  0  0  0  4           0  0  0
   -0.5059   -1.1697   -0.7404 C   0  0  0  0  0  4           0  0  0
    4.4812   -4.6596   -8.0325 C   0  0  0  0  0  4           0  0  0
  1 10  1  0     0  0
  2 11  1  0     0  0
  3 24  2  0     0  0
  4  5  1  0     0  0
  4 14  1  0     0  0
  5 12  2  0     0  0
  6 13  1  0     0  0
  6 15  2  0     0  0
  7 12  1  0     0  0
  7 13  1  0     0  0
  8 24  1  0     0  0
  8 26  1  0     0  0
  8 27  1  0     0  0
  9 25  1  0     0  0
  9 28  1  0     0  0
  9 29  1  0     0  0
 10 11  1  0     0  0
 10 17  2  0     0  0
 11 16  2  0     0  0
 12 18  1  0     0  0
 13 19  2  0     0  0
 14 18  2  0     0  0
 14 30  1  0     0  0
 15 20  1  0     0  0
 15 25  1  0     0  0
 16 21  1  0     0  0
 16 24  1  0     0  0
 17 22  1  0     0  0
 19 23  1  0     0  0
 20 23  2  0     0  0
 21 22  2  0     0  0
 26 28  1  0     0  0
 27 29  1  0     0  0
M  END
> <standard_type>
pIC50

> <# Confs.>
25

> <canonical_smiles>
ClC1=CC=CC(C(N2CCN(CC3=NC(NC4=NNC(C)=C4)=CC=C3)CC2)=O)=C1F

> <standard_relation>
=

> <Publication_ID>
nan

> <predicted_activity_value>
6.275724130399211

> <actual_activity_value>
6.113509274827518

> <Compound>
40

> <standard_units>
nM

> hash
10155212887812467807

$$$$
40_
XXILIB    08252103423D 0   0.00000     0.00000

 30 33  0     1  0            999 V2000
   -3.1092   -6.7181   -0.6035 Cl  0  0  0  0  0  1           0  0  0
   -2.5209   -4.3992    1.0870 F   0  0  0  0  0  1           0  0  0
   -4.2145   -1.7005    2.1134 O   0  0  0  0  0  2           0  0  0
    4.6621    4.6676    5.7143 N   0  0  0  0  0  3           0  0  0
    3.9093    4.2257    4.6962 N   0  0  0  0  0  3           0  0  0
    2.4109    1.0420    2.0000 N   0  0  0  0  0  3           0  0  0
    3.3374    1.9675    4.0255 N   0  0  0  0  0  3           0  0  0
   -2.6092   -1.0636    0.5468 N   0  0  2  0  0  3           0  0  0
    0.0000    0.0000    0.0000 N   0  0  2  0  0  3           0  0  0
   -3.8568   -5.1692   -0.6983 C   0  0  0  0  0  4           0  0  0
   -3.4750   -4.1500    0.1758 C   0  0  0  0  0  4           0  0  0
    3.9467    2.8895    4.8165 C   0  0  0  0  0  4           0  0  0
    3.0285    2.0660    2.6476 C   0  0  0  0  0  4           0  0  0
    5.1889    3.6760    6.4902 C   0  0  0  0  0  4           0  0  0
    2.1381    1.1717    0.6765 C   0  0  0  0  0  4           0  0  0
   -4.0748   -2.8859    0.1070 C   0  0  0  0  0  4           0  0  0
   -4.8433   -4.9392   -1.6539 C   0  0  0  0  0  4           0  0  0
    4.7406    2.5026    5.9295 C   0  0  0  0  0  4           0  0  0
    3.3946    3.2308    1.9704 C   0  0  0  0  0  4           0  0  0
    2.4761    2.3066   -0.0503 C   0  0  0  0  0  4           0  0  0
   -5.0681   -2.6622   -0.8562 C   0  0  0  0  0  4           0  0  0
   -5.4470   -3.6853   -1.7307 C   0  0  0  0  0  4           0  0  0
    3.1122    3.3462    0.6130 C   0  0  0  0  0  4           0  0  0
   -3.6532   -1.8307    1.0324 C   0  0  0  0  0  4           0  0  0
    1.4665    0.0000    0.0000 C   0  0  0  0  0  4           0  0  0
   -2.0721    0.0290    1.3517 C   0  0  0  0  0  4           0  0  0
   -2.0344   -1.1723   -0.7965 C   0  0  0  0  0  4           0  0  0
   -0.5438    0.0000    1.3711 C   0  0  0  0  0  4           0  0  0
   -0.5059   -1.1697   -0.7404 C   0  0  0  0  0  4           0  0  0
    6.0418    3.9557    7.6643 C   0  0  0  0  0  4           0  0  0
  1 10  1  0     0  0
  2 11  1  0     0  0
  3 24  2  0     0  0
  4  5  1  0     0  0
  4 14  1  0     0  0
  5 12  2  0     0  0
  6 13  1  0     0  0
  6 15  2  0     0  0
  7 12  1  0     0  0
  7 13  1  0     0  0
  8 24  1  0     0  0
  8 26  1  0     0  0
  8 27  1  0     0  0
  9 25  1  0     0  0
  9 28  1  0     0  0
  9 29  1  0     0  0
 10 11  1  0     0  0
 10 17  2  0     0  0
 11 16  2  0     0  0
 12 18  1  0     0  0
 13 19  2  0     0  0
 14 18  2  0     0  0
 14 30  1  0     0  0
 15 20  1  0     0  0
 15 25  1  0     0  0
 16 21  1  0     0  0
 16 24  1  0     0  0
 17 22  1  0     0  0
 19 23  1  0     0  0
 20 23  2  0     0  0
 21 22  2  0     0  0
 26 28  1  0     0  0
 27 29  1  0     0  0
M  END
> <standard_type>
pIC50

> <# Confs.>
25

> <canonical_smiles>
ClC1=CC=CC(C(N2CCN(CC3=NC(NC4=NNC(C)=C4)=CC=C3)CC2)=O)=C1F

> <standard_relation>
=

> <Publication_ID>
nan

> <predicted_activity_value>
6.275724130399211

> <actual_activity_value>
6.113509274827518

> <Compound>
40

> <standard_units>
nM

> hash
10155212887812467807

$$$$
40_
XXILIB    08252103423D 0   0.00000     0.00000

 30 33  0     1  0            999 V2000
   -3.1092   -6.7181   -0.6035 Cl  0  0  0  0  0  1           0  0  0
   -2.5209   -4.3992    1.0870 F   0  0  0  0  0  1           0  0  0
   -4.2145   -1.7005    2.1134 O   0  0  0  0  0  2           0  0  0
    6.6322   -1.7038   -5.9215 N   0  0  0  0  0  3           0  0  0
    5.8859   -1.0401   -5.0266 N   0  0  0  0  0  3           0  0  0
    3.1779   -0.8564   -1.5216 N   0  0  0  0  0  3           0  0  0
    4.8868   -1.7860   -2.9475 N   0  0  0  0  0  3           0  0  0
   -2.6092   -1.0636    0.5468 N   0  0  2  0  0  3           0  0  0
    0.0000    0.0000    0.0000 N   0  0  2  0  0  3           0  0  0
   -3.8568   -5.1692   -0.6983 C   0  0  0  0  0  4           0  0  0
   -3.4750   -4.1500    0.1758 C   0  0  0  0  0  4           0  0  0
    5.6153   -1.9549   -4.0824 C   0  0  0  0  0  4           0  0  0
    3.8036   -0.9015   -2.7282 C   0  0  0  0  0  4           0  0  0
    6.8571   -3.0113   -5.6005 C   0  0  0  0  0  4           0  0  0
    2.1381    0.0000   -1.3529 C   0  0  0  0  0  4           0  0  0
   -4.0748   -2.8859    0.1070 C   0  0  0  0  0  4           0  0  0
   -4.8433   -4.9392   -1.6539 C   0  0  0  0  0  4           0  0  0
    6.2053   -3.2064   -4.4050 C   0  0  0  0  0  4           0  0  0
    3.3836   -0.0961   -3.7886 C   0  0  0  0  0  4           0  0  0
    1.6763    0.8270   -2.3694 C   0  0  0  0  0  4           0  0  0
   -5.0681   -2.6622   -0.8562 C   0  0  0  0  0  4           0  0  0
   -5.4470   -3.6853   -1.7307 C   0  0  0  0  0  4           0  0  0
    2.3133    0.7728   -3.6009 C   0  0  0  0  0  4           0  0  0
   -3.6532   -1.8307    1.0324 C   0  0  0  0  0  4           0  0  0
    1.4665    0.0000    0.0000 C   0  0  0  0  0  4           0  0  0
   -2.0721    0.0290    1.3517 C   0  0  0  0  0  4           0  0  0
   -2.0344   -1.1723   -0.7965 C   0  0  0  0  0  4           0  0  0
   -0.5438    0.0000    1.3711 C   0  0  0  0  0  4           0  0  0
   -0.5059   -1.1697   -0.7404 C   0  0  0  0  0  4           0  0  0
    7.6611   -3.9109   -6.4541 C   0  0  0  0  0  4           0  0  0
  1 10  1  0     0  0
  2 11  1  0     0  0
  3 24  2  0     0  0
  4  5  1  0     0  0
  4 14  1  0     0  0
  5 12  2  0     0  0
  6 13  1  0     0  0
  6 15  2  0     0  0
  7 12  1  0     0  0
  7 13  1  0     0  0
  8 24  1  0     0  0
  8 26  1  0     0  0
  8 27  1  0     0  0
  9 25  1  0     0  0
  9 28  1  0     0  0
  9 29  1  0     0  0
 10 11  1  0     0  0
 10 17  2  0     0  0
 11 16  2  0     0  0
 12 18  1  0     0  0
 13 19  2  0     0  0
 14 18  2  0     0  0
 14 30  1  0     0  0
 15 20  1  0     0  0
 15 25  1  0     0  0
 16 21  1  0     0  0
 16 24  1  0     0  0
 17 22  1  0     0  0
 19 23  1  0     0  0
 20 23  2  0     0  0
 21 22  2  0     0  0
 26 28  1  0     0  0
 27 29  1  0     0  0
M  END
> <standard_type>
pIC50

> <# Confs.>
25

> <canonical_smiles>
ClC1=CC=CC(C(N2CCN(CC3=NC(NC4=NNC(C)=C4)=CC=C3)CC2)=O)=C1F

> <standard_relation>
=

> <Publication_ID>
nan

> <predicted_activity_value>
6.275724130399211

> <actual_activity_value>
6.113509274827518

> <Compound>
40

> <standard_units>
nM

> hash
10155212887812467807

$$$$
40_
XXILIB    08252103423D 0   0.00000     0.00000

 30 33  0     1  0            999 V2000
   -6.7265   -3.2731   -2.8834 Cl  0  0  0  0  0  1           0  0  0
   -5.6424   -1.4066   -0.9029 F   0  0  0  0  0  1           0  0  0
   -4.2145   -1.7005    2.1134 O   0  0  0  0  0  2           0  0  0
    6.6322   -1.7038   -5.9215 N   0  0  0  0  0  3           0  0  0
    5.8859   -1.0401   -5.0266 N   0  0  0  0  0  3           0  0  0
    3.1779   -0.8564   -1.5216 N   0  0  0  0  0  3           0  0  0
    4.8868   -1.7860   -2.9475 N   0  0  0  0  0  3           0  0  0
   -2.6092   -1.0636    0.5468 N   0  0  2  0  0  3           0  0  0
    0.0000    0.0000    0.0000 N   0  0  2  0  0  3           0  0  0
   -5.4954   -3.6120   -1.7273 C   0  0  0  0  0  4           0  0  0
   -5.0741   -2.6213   -0.8386 C   0  0  0  0  0  4           0  0  0
    5.6153   -1.9549   -4.0824 C   0  0  0  0  0  4           0  0  0
    3.8036   -0.9015   -2.7282 C   0  0  0  0  0  4           0  0  0
    6.8571   -3.0113   -5.6005 C   0  0  0  0  0  4           0  0  0
    2.1381    0.0000   -1.3529 C   0  0  0  0  0  4           0  0  0
   -4.0748   -2.8859    0.1070 C   0  0  0  0  0  4           0  0  0
   -4.9241   -4.8812   -1.6831 C   0  0  0  0  0  4           0  0  0
    6.2053   -3.2064   -4.4050 C   0  0  0  0  0  4           0  0  0
    3.3836   -0.0961   -3.7886 C   0  0  0  0  0  4           0  0  0
    1.6763    0.8270   -2.3694 C   0  0  0  0  0  4           0  0  0
   -3.5033   -4.1650    0.1444 C   0  0  0  0  0  4           0  0  0
   -3.9288   -5.1550   -0.7467 C   0  0  0  0  0  4           0  0  0
    2.3133    0.7728   -3.6009 C   0  0  0  0  0  4           0  0  0
   -3.6532   -1.8307    1.0324 C   0  0  0  0  0  4           0  0  0
    1.4665    0.0000    0.0000 C   0  0  0  0  0  4           0  0  0
   -2.0721    0.0290    1.3517 C   0  0  0  0  0  4           0  0  0
   -2.0344   -1.1723   -0.7965 C   0  0  0  0  0  4           0  0  0
   -0.5438    0.0000    1.3711 C   0  0  0  0  0  4           0  0  0
   -0.5059   -1.1697   -0.7404 C   0  0  0  0  0  4           0  0  0
    7.6611   -3.9109   -6.4541 C   0  0  0  0  0  4           0  0  0
  1 10  1  0     0  0
  2 11  1  0     0  0
  3 24  2  0     0  0
  4  5  1  0     0  0
  4 14  1  0     0  0
  5 12  2  0     0  0
  6 13  1  0     0  0
  6 15  2  0     0  0
  7 12  1  0     0  0
  7 13  1  0     0  0
  8 24  1  0     0  0
  8 26  1  0     0  0
  8 27  1  0     0  0
  9 25  1  0     0  0
  9 28  1  0     0  0
  9 29  1  0     0  0
 10 11  1  0     0  0
 10 17  2  0     0  0
 11 16  2  0     0  0
 12 18  1  0     0  0
 13 19  2  0     0  0
 14 18  2  0     0  0
 14 30  1  0     0  0
 15 20  1  0     0  0
 15 25  1  0     0  0
 16 21  1  0     0  0
 16 24  1  0     0  0
 17 22  1  0     0  0
 19 23  1  0     0  0
 20 23  2  0     0  0
 21 22  2  0     0  0
 26 28  1  0     0  0
 27 29  1  0     0  0
M  END
> <standard_type>
pIC50

> <# Confs.>
25

> <canonical_smiles>
ClC1=CC=CC(C(N2CCN(CC3=NC(NC4=NNC(C)=C4)=CC=C3)CC2)=O)=C1F

> <standard_relation>
=

> <Publication_ID>
nan

> <predicted_activity_value>
6.275724130399211

> <actual_activity_value>
6.113509274827518

> <Compound>
40

> <standard_units>
nM

> hash
10155212887812467807

$$$$
40_
XXILIB    08252103423D 0   0.00000     0.00000

 30 33  0     1  0            999 V2000
   -6.7265   -3.2731   -2.8834 Cl  0  0  0  0  0  1           0  0  0
   -5.6424   -1.4066   -0.9029 F   0  0  0  0  0  1           0  0  0
   -4.2145   -1.7005    2.1134 O   0  0  0  0  0  2           0  0  0
    4.6621    4.6676    5.7143 N   0  0  0  0  0  3           0  0  0
    3.9093    4.2257    4.6962 N   0  0  0  0  0  3           0  0  0
    2.4109    1.0420    2.0000 N   0  0  0  0  0  3           0  0  0
    3.3374    1.9675    4.0255 N   0  0  0  0  0  3           0  0  0
   -2.6092   -1.0636    0.5468 N   0  0  2  0  0  3           0  0  0
    0.0000    0.0000    0.0000 N   0  0  2  0  0  3           0  0  0
   -5.4954   -3.6120   -1.7273 C   0  0  0  0  0  4           0  0  0
   -5.0741   -2.6213   -0.8386 C   0  0  0  0  0  4           0  0  0
    3.9467    2.8895    4.8165 C   0  0  0  0  0  4           0  0  0
    3.0285    2.0660    2.6476 C   0  0  0  0  0  4           0  0  0
    5.1889    3.6760    6.4902 C   0  0  0  0  0  4           0  0  0
    2.1381    1.1717    0.6765 C   0  0  0  0  0  4           0  0  0
   -4.0748   -2.8859    0.1070 C   0  0  0  0  0  4           0  0  0
   -4.9241   -4.8812   -1.6831 C   0  0  0  0  0  4           0  0  0
    4.7406    2.5026    5.9295 C   0  0  0  0  0  4           0  0  0
    3.3946    3.2308    1.9704 C   0  0  0  0  0  4           0  0  0
    2.4761    2.3066   -0.0503 C   0  0  0  0  0  4           0  0  0
   -3.5033   -4.1650    0.1444 C   0  0  0  0  0  4           0  0  0
   -3.9288   -5.1550   -0.7467 C   0  0  0  0  0  4           0  0  0
    3.1122    3.3462    0.6130 C   0  0  0  0  0  4           0  0  0
   -3.6532   -1.8307    1.0324 C   0  0  0  0  0  4           0  0  0
    1.4665    0.0000    0.0000 C   0  0  0  0  0  4           0  0  0
   -2.0721    0.0290    1.3517 C   0  0  0  0  0  4           0  0  0
   -2.0344   -1.1723   -0.7965 C   0  0  0  0  0  4           0  0  0
   -0.5438    0.0000    1.3711 C   0  0  0  0  0  4           0  0  0
   -0.5059   -1.1697   -0.7404 C   0  0  0  0  0  4           0  0  0
    6.0418    3.9557    7.6643 C   0  0  0  0  0  4           0  0  0
  1 10  1  0     0  0
  2 11  1  0     0  0
  3 24  2  0     0  0
  4  5  1  0     0  0
  4 14  1  0     0  0
  5 12  2  0     0  0
  6 13  1  0     0  0
  6 15  2  0     0  0
  7 12  1  0     0  0
  7 13  1  0     0  0
  8 24  1  0     0  0
  8 26  1  0     0  0
  8 27  1  0     0  0
  9 25  1  0     0  0
  9 28  1  0     0  0
  9 29  1  0     0  0
 10 11  1  0     0  0
 10 17  2  0     0  0
 11 16  2  0     0  0
 12 18  1  0     0  0
 13 19  2  0     0  0
 14 18  2  0     0  0
 14 30  1  0     0  0
 15 20  1  0     0  0
 15 25  1  0     0  0
 16 21  1  0     0  0
 16 24  1  0     0  0
 17 22  1  0     0  0
 19 23  1  0     0  0
 20 23  2  0     0  0
 21 22  2  0     0  0
 26 28  1  0     0  0
 27 29  1  0     0  0
M  END
> <standard_type>
pIC50

> <# Confs.>
25

> <canonical_smiles>
ClC1=CC=CC(C(N2CCN(CC3=NC(NC4=NNC(C)=C4)=CC=C3)CC2)=O)=C1F

> <standard_relation>
=

> <Publication_ID>
nan

> <predicted_activity_value>
6.275724130399211

> <actual_activity_value>
6.113509274827518

> <Compound>
40

> <standard_units>
nM

> hash
10155212887812467807

$$$$
40_
XXILIB    08252103423D 0   0.00000     0.00000

 30 33  0     1  0            999 V2000
   -6.7265   -3.2731   -2.8834 Cl  0  0  0  0  0  1           0  0  0
   -5.6424   -1.4066   -0.9029 F   0  0  0  0  0  1           0  0  0
   -4.2145   -1.7005    2.1134 O   0  0  0  0  0  2           0  0  0
    4.6621   -7.2825    1.1851 N   0  0  0  0  0  3           0  0  0
    3.9093   -6.1799    1.3115 N   0  0  0  0  0  3           0  0  0
    2.4109   -2.2531   -0.0976 N   0  0  0  0  0  3           0  0  0
    3.3374   -4.4699   -0.3089 N   0  0  0  0  0  3           0  0  0
   -2.6092   -1.0636    0.5468 N   0  0  2  0  0  3           0  0  0
    0.0000    0.0000    0.0000 N   0  0  2  0  0  3           0  0  0
   -5.4954   -3.6120   -1.7273 C   0  0  0  0  0  4           0  0  0
   -5.0741   -2.6213   -0.8386 C   0  0  0  0  0  4           0  0  0
    3.9467   -5.6160    0.0942 C   0  0  0  0  0  4           0  0  0
    3.0285   -3.3259    0.4653 C   0  0  0  0  0  4           0  0  0
    5.1889   -7.4587   -0.0616 C   0  0  0  0  0  4           0  0  0
    2.1381   -1.1717    0.6765 C   0  0  0  0  0  4           0  0  0
   -4.0748   -2.8859    0.1070 C   0  0  0  0  0  4           0  0  0
   -4.9241   -4.8812   -1.6831 C   0  0  0  0  0  4           0  0  0
    4.7406   -6.3864   -0.7974 C   0  0  0  0  0  4           0  0  0
    3.3946   -3.3218    1.8128 C   0  0  0  0  0  4           0  0  0
    2.4761   -1.1097    2.0227 C   0  0  0  0  0  4           0  0  0
   -3.5033   -4.1650    0.1444 C   0  0  0  0  0  4           0  0  0
   -3.9288   -5.1550   -0.7467 C   0  0  0  0  0  4           0  0  0
    3.1122   -2.2039    2.5914 C   0  0  0  0  0  4           0  0  0
   -3.6532   -1.8307    1.0324 C   0  0  0  0  0  4           0  0  0
    1.4665   -0.0000    0.0000 C   0  0  0  0  0  4           0  0  0
   -2.0721    0.0290    1.3517 C   0  0  0  0  0  4           0  0  0
   -2.0344   -1.1723   -0.7965 C   0  0  0  0  0  4           0  0  0
   -0.5438    0.0000    1.3711 C   0  0  0  0  0  4           0  0  0
   -0.5059   -1.1697   -0.7404 C   0  0  0  0  0  4           0  0  0
    6.0418   -8.6153   -0.4064 C   0  0  0  0  0  4           0  0  0
  1 10  1  0     0  0
  2 11  1  0     0  0
  3 24  2  0     0  0
  4  5  1  0     0  0
  4 14  1  0     0  0
  5 12  2  0     0  0
  6 13  1  0     0  0
  6 15  2  0     0  0
  7 12  1  0     0  0
  7 13  1  0     0  0
  8 24  1  0     0  0
  8 26  1  0     0  0
  8 27  1  0     0  0
  9 25  1  0     0  0
  9 28  1  0     0  0
  9 29  1  0     0  0
 10 11  1  0     0  0
 10 17  2  0     0  0
 11 16  2  0     0  0
 12 18  1  0     0  0
 13 19  2  0     0  0
 14 18  2  0     0  0
 14 30  1  0     0  0
 15 20  1  0     0  0
 15 25  1  0     0  0
 16 21  1  0     0  0
 16 24  1  0     0  0
 17 22  1  0     0  0
 19 23  1  0     0  0
 20 23  2  0     0  0
 21 22  2  0     0  0
 26 28  1  0     0  0
 27 29  1  0     0  0
M  END
> <standard_type>
pIC50

> <# Confs.>
25

> <canonical_smiles>
ClC1=CC=CC(C(N2CCN(CC3=NC(NC4=NNC(C)=C4)=CC=C3)CC2)=O)=C1F

> <standard_relation>
=

> <Publication_ID>
nan

> <predicted_activity_value>
6.275724130399211

> <actual_activity_value>
6.113509274827518

> <Compound>
40

> <standard_units>
nM

> hash
10155212887812467807

$$$$
40_
XXILIB    08252103423D 0   0.00000     0.00000

 30 33  0     1  0            999 V2000
   -3.1092   -6.7181   -0.6035 Cl  0  0  0  0  0  1           0  0  0
   -2.5209   -4.3992    1.0870 F   0  0  0  0  0  1           0  0  0
   -4.2145   -1.7005    2.1134 O   0  0  0  0  0  2           0  0  0
    1.9802   -5.6910   -3.7221 N   0  0  0  0  0  3           0  0  0
    2.9219   -4.8556   -4.1844 N   0  0  0  0  0  3           0  0  0
    2.4109   -1.2111   -1.9024 N   0  0  0  0  0  3           0  0  0
    3.2957   -2.5025   -3.7373 N   0  0  0  0  0  3           0  0  0
   -2.6092   -1.0636    0.5468 N   0  0  2  0  0  3           0  0  0
    0.0000    0.0000    0.0000 N   0  0  2  0  0  3           0  0  0
   -3.8568   -5.1692   -0.6983 C   0  0  0  0  0  4           0  0  0
   -3.4750   -4.1500    0.1758 C   0  0  0  0  0  4           0  0  0
    2.6347   -3.6820   -3.6000 C   0  0  0  0  0  4           0  0  0
    3.0017   -1.2599   -3.1263 C   0  0  0  0  0  4           0  0  0
    1.0921   -5.1106   -2.8636 C   0  0  0  0  0  4           0  0  0
    2.1381    0.0000   -1.3529 C   0  0  0  0  0  4           0  0  0
   -4.0748   -2.8859    0.1070 C   0  0  0  0  0  4           0  0  0
   -4.8433   -4.9392   -1.6539 C   0  0  0  0  0  4           0  0  0
    1.4921   -3.7982   -2.7636 C   0  0  0  0  0  4           0  0  0
    3.3142   -0.0910   -3.8231 C   0  0  0  0  0  4           0  0  0
    2.4272    1.1969   -1.9967 C   0  0  0  0  0  4           0  0  0
   -5.0681   -2.6622   -0.8562 C   0  0  0  0  0  4           0  0  0
   -5.4470   -3.6853   -1.7307 C   0  0  0  0  0  4           0  0  0
    3.0239    1.1423   -3.2482 C   0  0  0  0  0  4           0  0  0
   -3.6532   -1.8307    1.0324 C   0  0  0  0  0  4           0  0  0
    1.4665    0.0000   -0.0000 C   0  0  0  0  0  4           0  0  0
   -2.0721    0.0290    1.3517 C   0  0  0  0  0  4           0  0  0
   -2.0344   -1.1723   -0.7965 C   0  0  0  0  0  4           0  0  0
   -0.5438    0.0000    1.3711 C   0  0  0  0  0  4           0  0  0
   -0.5059   -1.1697   -0.7404 C   0  0  0  0  0  4           0  0  0
   -0.0167   -5.8631   -2.2403 C   0  0  0  0  0  4           0  0  0
  1 10  1  0     0  0
  2 11  1  0     0  0
  3 24  2  0     0  0
  4  5  1  0     0  0
  4 14  1  0     0  0
  5 12  2  0     0  0
  6 13  1  0     0  0
  6 15  2  0     0  0
  7 12  1  0     0  0
  7 13  1  0     0  0
  8 24  1  0     0  0
  8 26  1  0     0  0
  8 27  1  0     0  0
  9 25  1  0     0  0
  9 28  1  0     0  0
  9 29  1  0     0  0
 10 11  1  0     0  0
 10 17  2  0     0  0
 11 16  2  0     0  0
 12 18  1  0     0  0
 13 19  2  0     0  0
 14 18  2  0     0  0
 14 30  1  0     0  0
 15 20  1  0     0  0
 15 25  1  0     0  0
 16 21  1  0     0  0
 16 24  1  0     0  0
 17 22  1  0     0  0
 19 23  1  0     0  0
 20 23  2  0     0  0
 21 22  2  0     0  0
 26 28  1  0     0  0
 27 29  1  0     0  0
M  END
> <standard_type>
pIC50

> <# Confs.>
25

> <canonical_smiles>
ClC1=CC=CC(C(N2CCN(CC3=NC(NC4=NNC(C)=C4)=CC=C3)CC2)=O)=C1F

> <standard_relation>
=

> <Publication_ID>
nan

> <predicted_activity_value>
6.275724130399211

> <actual_activity_value>
6.113509274827518

> <Compound>
40

> <standard_units>
nM

> hash
10155212887812467807

$$$$
40_
XXILIB    08252103423D 0   0.00000     0.00000

 30 33  0     1  0            999 V2000
   -3.1092   -6.7181   -0.6035 Cl  0  0  0  0  0  1           0  0  0
   -2.5209   -4.3992    1.0870 F   0  0  0  0  0  1           0  0  0
   -4.2145   -1.7005    2.1134 O   0  0  0  0  0  2           0  0  0
    4.6621   -7.2825    1.1851 N   0  0  0  0  0  3           0  0  0
    3.9093   -6.1799    1.3115 N   0  0  0  0  0  3           0  0  0
    2.4109   -2.2531   -0.0976 N   0  0  0  0  0  3           0  0  0
    3.3374   -4.4699   -0.3089 N   0  0  0  0  0  3           0  0  0
   -2.6092   -1.0636    0.5468 N   0  0  2  0  0  3           0  0  0
    0.0000    0.0000    0.0000 N   0  0  2  0  0  3           0  0  0
   -3.8568   -5.1692   -0.6983 C   0  0  0  0  0  4           0  0  0
   -3.4750   -4.1500    0.1758 C   0  0  0  0  0  4           0  0  0
    3.9467   -5.6160    0.0942 C   0  0  0  0  0  4           0  0  0
    3.0285   -3.3259    0.4653 C   0  0  0  0  0  4           0  0  0
    5.1889   -7.4587   -0.0616 C   0  0  0  0  0  4           0  0  0
    2.1381   -1.1717    0.6765 C   0  0  0  0  0  4           0  0  0
   -4.0748   -2.8859    0.1070 C   0  0  0  0  0  4           0  0  0
   -4.8433   -4.9392   -1.6539 C   0  0  0  0  0  4           0  0  0
    4.7406   -6.3864   -0.7974 C   0  0  0  0  0  4           0  0  0
    3.3946   -3.3218    1.8128 C   0  0  0  0  0  4           0  0  0
    2.4761   -1.1097    2.0227 C   0  0  0  0  0  4           0  0  0
   -5.0681   -2.6622   -0.8562 C   0  0  0  0  0  4           0  0  0
   -5.4470   -3.6853   -1.7307 C   0  0  0  0  0  4           0  0  0
    3.1122   -2.2039    2.5914 C   0  0  0  0  0  4           0  0  0
   -3.6532   -1.8307    1.0324 C   0  0  0  0  0  4           0  0  0
    1.4665   -0.0000    0.0000 C   0  0  0  0  0  4           0  0  0
   -2.0721    0.0290    1.3517 C   0  0  0  0  0  4           0  0  0
   -2.0344   -1.1723   -0.7965 C   0  0  0  0  0  4           0  0  0
   -0.5438    0.0000    1.3711 C   0  0  0  0  0  4           0  0  0
   -0.5059   -1.1697   -0.7404 C   0  0  0  0  0  4           0  0  0
    6.0418   -8.6153   -0.4064 C   0  0  0  0  0  4           0  0  0
  1 10  1  0     0  0
  2 11  1  0     0  0
  3 24  2  0     0  0
  4  5  1  0     0  0
  4 14  1  0     0  0
  5 12  2  0     0  0
  6 13  1  0     0  0
  6 15  2  0     0  0
  7 12  1  0     0  0
  7 13  1  0     0  0
  8 24  1  0     0  0
  8 26  1  0     0  0
  8 27  1  0     0  0
  9 25  1  0     0  0
  9 28  1  0     0  0
  9 29  1  0     0  0
 10 11  1  0     0  0
 10 17  2  0     0  0
 11 16  2  0     0  0
 12 18  1  0     0  0
 13 19  2  0     0  0
 14 18  2  0     0  0
 14 30  1  0     0  0
 15 20  1  0     0  0
 15 25  1  0     0  0
 16 21  1  0     0  0
 16 24  1  0     0  0
 17 22  1  0     0  0
 19 23  1  0     0  0
 20 23  2  0     0  0
 21 22  2  0     0  0
 26 28  1  0     0  0
 27 29  1  0     0  0
M  END
> <standard_type>
pIC50

> <# Confs.>
25

> <canonical_smiles>
ClC1=CC=CC(C(N2CCN(CC3=NC(NC4=NNC(C)=C4)=CC=C3)CC2)=O)=C1F

> <standard_relation>
=

> <Publication_ID>
nan

> <predicted_activity_value>
6.275724130399211

> <actual_activity_value>
6.113509274827518

> <Compound>
40

> <standard_units>
nM

> hash
10155212887812467807

$$$$
40_
XXILIB    08252103423D 0   0.00000     0.00000

 30 33  0     1  0            999 V2000
   -5.6558   -5.9877   -1.3273 Cl  0  0  0  0  0  1           0  0  0
   -4.0265   -4.5890    0.6653 F   0  0  0  0  0  1           0  0  0
   -3.8907   -2.0815    2.2076 O   0  0  0  0  0  2           0  0  0
    6.3722    4.2428    4.7523 N   0  0  0  0  0  3           0  0  0
    5.2738    3.7545    4.1578 N   0  0  0  0  0  3           0  0  0
    3.1779    0.8896    1.5024 N   0  0  0  0  0  3           0  0  0
    4.9163    1.6634    2.9846 N   0  0  0  0  0  3           0  0  0
   -2.6092   -1.0636    0.5468 N   0  0  2  0  0  3           0  0  0
    0.0000    0.0000    0.0000 N   0  0  2  0  0  3           0  0  0
   -5.4830   -4.2816   -1.1647 C   0  0  0  0  0  4           0  0  0
   -4.6680   -3.7501   -0.1638 C   0  0  0  0  0  4           0  0  0
    5.6636    2.5642    3.6755 C   0  0  0  0  0  4           0  0  0
    3.8226    1.9144    2.1218 C   0  0  0  0  0  4           0  0  0
    7.4599    3.4219    4.6757 C   0  0  0  0  0  4           0  0  0
    2.1381    1.1717    0.6765 C   0  0  0  0  0  4           0  0  0
   -4.5186   -2.3643   -0.0231 C   0  0  0  0  0  4           0  0  0
   -6.1600   -3.4355   -2.0394 C   0  0  0  0  0  4           0  0  0
    7.0297    2.3174    3.9777 C   0  0  0  0  0  4           0  0  0
    3.4404    3.2403    1.9085 C   0  0  0  0  0  4           0  0  0
    1.7109    2.4699    0.4265 C   0  0  0  0  0  4           0  0  0
   -5.2042   -1.5188   -0.9059 C   0  0  0  0  0  4           0  0  0
   -6.0188   -2.0551   -1.9080 C   0  0  0  0  0  4           0  0  0
    2.3758    3.5129    1.0553 C   0  0  0  0  0  4           0  0  0
   -3.6532   -1.8307    1.0324 C   0  0  0  0  0  4           0  0  0
    1.4665   -0.0000    0.0000 C   0  0  0  0  0  4           0  0  0
   -2.0721    0.0290    1.3517 C   0  0  0  0  0  4           0  0  0
   -2.0344   -1.1723   -0.7965 C   0  0  0  0  0  4           0  0  0
   -0.5438    0.0000    1.3711 C   0  0  0  0  0  4           0  0  0
   -0.5059   -1.1697   -0.7404 C   0  0  0  0  0  4           0  0  0
    8.7646    3.7756    5.2731 C   0  0  0  0  0  4           0  0  0
  1 10  1  0     0  0
  2 11  1  0     0  0
  3 24  2  0     0  0
  4  5  1  0     0  0
  4 14  1  0     0  0
  5 12  2  0     0  0
  6 13  1  0     0  0
  6 15  2  0     0  0
  7 12  1  0     0  0
  7 13  1  0     0  0
  8 24  1  0     0  0
  8 26  1  0     0  0
  8 27  1  0     0  0
  9 25  1  0     0  0
  9 28  1  0     0  0
  9 29  1  0     0  0
 10 11  1  0     0  0
 10 17  2  0     0  0
 11 16  2  0     0  0
 12 18  1  0     0  0
 13 19  2  0     0  0
 14 18  2  0     0  0
 14 30  1  0     0  0
 15 20  1  0     0  0
 15 25  1  0     0  0
 16 21  1  0     0  0
 16 24  1  0     0  0
 17 22  1  0     0  0
 19 23  1  0     0  0
 20 23  2  0     0  0
 21 22  2  0     0  0
 26 28  1  0     0  0
 27 29  1  0     0  0
M  END
> <standard_type>
pIC50

> <# Confs.>
25

> <canonical_smiles>
ClC1=CC=CC(C(N2CCN(CC3=NC(NC4=NNC(C)=C4)=CC=C3)CC2)=O)=C1F

> <standard_relation>
=

> <Publication_ID>
nan

> <predicted_activity_value>
6.275724130399211

> <actual_activity_value>
6.113509274827518

> <Compound>
40

> <standard_units>
nM

> hash
10155212887812467807

$$$$
40_
XXILIB    08252103423D 0   0.00000     0.00000

 30 33  0     1  0            999 V2000
   -3.1092   -6.7181   -0.6035 Cl  0  0  0  0  0  1           0  0  0
   -2.5209   -4.3992    1.0870 F   0  0  0  0  0  1           0  0  0
   -4.2145   -1.7005    2.1134 O   0  0  0  0  0  2           0  0  0
    3.0496   -2.8636   -7.1588 N   0  0  0  0  0  3           0  0  0
    2.6360   -2.2264   -6.0536 N   0  0  0  0  0  3           0  0  0
    2.4109   -1.2111   -1.9024 N   0  0  0  0  0  3           0  0  0
    3.2957   -2.5025   -3.7373 N   0  0  0  0  0  3           0  0  0
   -2.6092   -1.0636    0.5468 N   0  0  2  0  0  3           0  0  0
    0.0000    0.0000    0.0000 N   0  0  2  0  0  3           0  0  0
   -3.8568   -5.1692   -0.6983 C   0  0  0  0  0  4           0  0  0
   -3.4750   -4.1500    0.1758 C   0  0  0  0  0  4           0  0  0
    3.3422   -2.7947   -5.0638 C   0  0  0  0  0  4           0  0  0
    3.0017   -1.2599   -3.1263 C   0  0  0  0  0  4           0  0  0
    3.9930   -3.8230   -6.9298 C   0  0  0  0  0  4           0  0  0
    2.1381    0.0000   -1.3529 C   0  0  0  0  0  4           0  0  0
   -4.0748   -2.8859    0.1070 C   0  0  0  0  0  4           0  0  0
   -4.8433   -4.9392   -1.6539 C   0  0  0  0  0  4           0  0  0
    4.2052   -3.8030   -5.5708 C   0  0  0  0  0  4           0  0  0
    3.3142   -0.0910   -3.8231 C   0  0  0  0  0  4           0  0  0
    2.4272    1.1969   -1.9967 C   0  0  0  0  0  4           0  0  0
   -5.0681   -2.6622   -0.8562 C   0  0  0  0  0  4           0  0  0
   -5.4470   -3.6853   -1.7307 C   0  0  0  0  0  4           0  0  0
    3.0239    1.1423   -3.2482 C   0  0  0  0  0  4           0  0  0
   -3.6532   -1.8307    1.0324 C   0  0  0  0  0  4           0  0  0
    1.4665    0.0000   -0.0000 C   0  0  0  0  0  4           0  0  0
   -2.0721    0.0290    1.3517 C   0  0  0  0  0  4           0  0  0
   -2.0344   -1.1723   -0.7965 C   0  0  0  0  0  4           0  0  0
   -0.5438    0.0000    1.3711 C   0  0  0  0  0  4           0  0  0
   -0.5059   -1.1697   -0.7404 C   0  0  0  0  0  4           0  0  0
    4.5808   -4.6333   -8.0170 C   0  0  0  0  0  4           0  0  0
  1 10  1  0     0  0
  2 11  1  0     0  0
  3 24  2  0     0  0
  4  5  1  0     0  0
  4 14  1  0     0  0
  5 12  2  0     0  0
  6 13  1  0     0  0
  6 15  2  0     0  0
  7 12  1  0     0  0
  7 13  1  0     0  0
  8 24  1  0     0  0
  8 26  1  0     0  0
  8 27  1  0     0  0
  9 25  1  0     0  0
  9 28  1  0     0  0
  9 29  1  0     0  0
 10 11  1  0     0  0
 10 17  2  0     0  0
 11 16  2  0     0  0
 12 18  1  0     0  0
 13 19  2  0     0  0
 14 18  2  0     0  0
 14 30  1  0     0  0
 15 20  1  0     0  0
 15 25  1  0     0  0
 16 21  1  0     0  0
 16 24  1  0     0  0
 17 22  1  0     0  0
 19 23  1  0     0  0
 20 23  2  0     0  0
 21 22  2  0     0  0
 26 28  1  0     0  0
 27 29  1  0     0  0
M  END
> <standard_type>
pIC50

> <# Confs.>
25

> <canonical_smiles>
ClC1=CC=CC(C(N2CCN(CC3=NC(NC4=NNC(C)=C4)=CC=C3)CC2)=O)=C1F

> <standard_relation>
=

> <Publication_ID>
nan

> <predicted_activity_value>
6.275724130399211

> <actual_activity_value>
6.113509274827518

> <Compound>
40

> <standard_units>
nM

> hash
10155212887812467807

$$$$
40_
XXILIB    08252103423D 0   0.00000     0.00000

 30 33  0     1  0            999 V2000
   -3.1092   -6.7181   -0.6035 Cl  0  0  0  0  0  1           0  0  0
   -2.5209   -4.3992    1.0870 F   0  0  0  0  0  1           0  0  0
   -4.2145   -1.7005    2.1134 O   0  0  0  0  0  2           0  0  0
    4.1032   -5.6914   -2.6999 N   0  0  0  0  0  3           0  0  0
    3.8752   -4.8564   -3.7242 N   0  0  0  0  0  3           0  0  0
    2.4109   -1.2111   -1.9024 N   0  0  0  0  0  3           0  0  0
    3.2957   -2.5025   -3.7373 N   0  0  0  0  0  3           0  0  0
   -2.6092   -1.0636    0.5468 N   0  0  2  0  0  3           0  0  0
    0.0000    0.0000    0.0000 N   0  0  2  0  0  3           0  0  0
   -3.8568   -5.1692   -0.6983 C   0  0  0  0  0  4           0  0  0
   -3.4750   -4.1500    0.1758 C   0  0  0  0  0  4           0  0  0
    3.5977   -3.6828   -3.1350 C   0  0  0  0  0  4           0  0  0
    3.0017   -1.2599   -3.1263 C   0  0  0  0  0  4           0  0  0
    3.9842   -5.1115   -1.4700 C   0  0  0  0  0  4           0  0  0
    2.1381    0.0000   -1.3529 C   0  0  0  0  0  4           0  0  0
   -4.0748   -2.8859    0.1070 C   0  0  0  0  0  4           0  0  0
   -4.8433   -4.9392   -1.6539 C   0  0  0  0  0  4           0  0  0
    3.6541   -3.7998   -1.7202 C   0  0  0  0  0  4           0  0  0
    3.3142   -0.0910   -3.8231 C   0  0  0  0  0  4           0  0  0
    2.4272    1.1969   -1.9967 C   0  0  0  0  0  4           0  0  0
   -5.0681   -2.6622   -0.8562 C   0  0  0  0  0  4           0  0  0
   -5.4470   -3.6853   -1.7307 C   0  0  0  0  0  4           0  0  0
    3.0239    1.1423   -3.2482 C   0  0  0  0  0  4           0  0  0
   -3.6532   -1.8307    1.0324 C   0  0  0  0  0  4           0  0  0
    1.4665    0.0000   -0.0000 C   0  0  0  0  0  4           0  0  0
   -2.0721    0.0290    1.3517 C   0  0  0  0  0  4           0  0  0
   -2.0344   -1.1723   -0.7965 C   0  0  0  0  0  4           0  0  0
   -0.5438    0.0000    1.3711 C   0  0  0  0  0  4           0  0  0
   -0.5059   -1.1697   -0.7404 C   0  0  0  0  0  4           0  0  0
    4.2017   -5.8610   -0.2150 C   0  0  0  0  0  4           0  0  0
  1 10  1  0     0  0
  2 11  1  0     0  0
  3 24  2  0     0  0
  4  5  1  0     0  0
  4 14  1  0     0  0
  5 12  2  0     0  0
  6 13  1  0     0  0
  6 15  2  0     0  0
  7 12  1  0     0  0
  7 13  1  0     0  0
  8 24  1  0     0  0
  8 26  1  0     0  0
  8 27  1  0     0  0
  9 25  1  0     0  0
  9 28  1  0     0  0
  9 29  1  0     0  0
 10 11  1  0     0  0
 10 17  2  0     0  0
 11 16  2  0     0  0
 12 18  1  0     0  0
 13 19  2  0     0  0
 14 18  2  0     0  0
 14 30  1  0     0  0
 15 20  1  0     0  0
 15 25  1  0     0  0
 16 21  1  0     0  0
 16 24  1  0     0  0
 17 22  1  0     0  0
 19 23  1  0     0  0
 20 23  2  0     0  0
 21 22  2  0     0  0
 26 28  1  0     0  0
 27 29  1  0     0  0
M  END
> <standard_type>
pIC50

> <# Confs.>
25

> <canonical_smiles>
ClC1=CC=CC(C(N2CCN(CC3=NC(NC4=NNC(C)=C4)=CC=C3)CC2)=O)=C1F

> <standard_relation>
=

> <Publication_ID>
nan

> <predicted_activity_value>
6.275724130399211

> <actual_activity_value>
6.113509274827518

> <Compound>
40

> <standard_units>
nM

> hash
10155212887812467807

$$$$
40_
XXILIB    08252103423D 0   0.00000     0.00000

 30 33  0     1  0            999 V2000
   -5.6558   -5.9877   -1.3273 Cl  0  0  0  0  0  1           0  0  0
   -4.0265   -4.5890    0.6653 F   0  0  0  0  0  1           0  0  0
   -3.8907   -2.0815    2.2076 O   0  0  0  0  0  2           0  0  0
    5.0299   -2.6149   -6.7168 N   0  0  0  0  0  3           0  0  0
    4.7749   -1.9542   -5.5780 N   0  0  0  0  0  3           0  0  0
    2.4109   -1.2111   -1.9024 N   0  0  0  0  0  3           0  0  0
    3.2957   -2.5025   -3.7373 N   0  0  0  0  0  3           0  0  0
   -2.6092   -1.0636    0.5468 N   0  0  2  0  0  3           0  0  0
    0.0000    0.0000    0.0000 N   0  0  2  0  0  3           0  0  0
   -5.4830   -4.2816   -1.1647 C   0  0  0  0  0  4           0  0  0
   -4.6680   -3.7501   -0.1638 C   0  0  0  0  0  4           0  0  0
    3.8784   -2.7265   -4.9446 C   0  0  0  0  0  4           0  0  0
    3.0017   -1.2599   -3.1263 C   0  0  0  0  0  4           0  0  0
    4.3364   -3.7827   -6.8518 C   0  0  0  0  0  4           0  0  0
    2.1381    0.0000   -1.3529 C   0  0  0  0  0  4           0  0  0
   -4.5186   -2.3643   -0.0231 C   0  0  0  0  0  4           0  0  0
   -6.1600   -3.4355   -2.0394 C   0  0  0  0  0  4           0  0  0
    3.5748   -3.8837   -5.7108 C   0  0  0  0  0  4           0  0  0
    3.3142   -0.0910   -3.8231 C   0  0  0  0  0  4           0  0  0
    2.4272    1.1969   -1.9967 C   0  0  0  0  0  4           0  0  0
   -5.2042   -1.5188   -0.9059 C   0  0  0  0  0  4           0  0  0
   -6.0188   -2.0551   -1.9080 C   0  0  0  0  0  4           0  0  0
    3.0239    1.1423   -3.2482 C   0  0  0  0  0  4           0  0  0
   -3.6532   -1.8307    1.0324 C   0  0  0  0  0  4           0  0  0
    1.4665    0.0000   -0.0000 C   0  0  0  0  0  4           0  0  0
   -2.0721    0.0290    1.3517 C   0  0  0  0  0  4           0  0  0
   -2.0344   -1.1723   -0.7965 C   0  0  0  0  0  4           0  0  0
   -0.5438    0.0000    1.3711 C   0  0  0  0  0  4           0  0  0
   -0.5059   -1.1697   -0.7404 C   0  0  0  0  0  4           0  0  0
    4.4812   -4.6596   -8.0325 C   0  0  0  0  0  4           0  0  0
  1 10  1  0     0  0
  2 11  1  0     0  0
  3 24  2  0     0  0
  4  5  1  0     0  0
  4 14  1  0     0  0
  5 12  2  0     0  0
  6 13  1  0     0  0
  6 15  2  0     0  0
  7 12  1  0     0  0
  7 13  1  0     0  0
  8 24  1  0     0  0
  8 26  1  0     0  0
  8 27  1  0     0  0
  9 25  1  0     0  0
  9 28  1  0     0  0
  9 29  1  0     0  0
 10 11  1  0     0  0
 10 17  2  0     0  0
 11 16  2  0     0  0
 12 18  1  0     0  0
 13 19  2  0     0  0
 14 18  2  0     0  0
 14 30  1  0     0  0
 15 20  1  0     0  0
 15 25  1  0     0  0
 16 21  1  0     0  0
 16 24  1  0     0  0
 17 22  1  0     0  0
 19 23  1  0     0  0
 20 23  2  0     0  0
 21 22  2  0     0  0
 26 28  1  0     0  0
 27 29  1  0     0  0
M  END
> <standard_type>
pIC50

> <# Confs.>
25

> <canonical_smiles>
ClC1=CC=CC(C(N2CCN(CC3=NC(NC4=NNC(C)=C4)=CC=C3)CC2)=O)=C1F

> <standard_relation>
=

> <Publication_ID>
nan

> <predicted_activity_value>
6.275724130399211

> <actual_activity_value>
6.113509274827518

> <Compound>
40

> <standard_units>
nM

> hash
10155212887812467807

$$$$
40_
XXILIB    08252103423D 0   0.00000     0.00000

 30 33  0     1  0            999 V2000
   -0.7059    8.0015   -0.3643 Cl  0  0  0  0  0  1           0  0  0
   -0.1984    5.7367    1.4231 F   0  0  0  0  0  1           0  0  0
   -2.1023    3.4767    3.0013 O   0  0  0  0  0  2           0  0  0
    4.6621    2.6149   -6.8994 N   0  0  0  0  0  3           0  0  0
    3.9093    1.9542   -6.0077 N   0  0  0  0  0  3           0  0  0
    2.4109    1.2111   -1.9024 N   0  0  0  0  0  3           0  0  0
    3.3374    2.5025   -3.7166 N   0  0  0  0  0  3           0  0  0
   -0.9391    2.4434    1.2646 N   0  0  2  0  0  3           0  0  0
    0.0000    0.0000    0.0000 N   0  0  2  0  0  3           0  0  0
   -1.7009    6.6086   -0.1729 C   0  0  0  0  0  4           0  0  0
   -1.3347    5.6008    0.7210 C   0  0  0  0  0  4           0  0  0
    3.9467    2.7265   -4.9107 C   0  0  0  0  0  4           0  0  0
    3.0285    1.2599   -3.1130 C   0  0  0  0  0  4           0  0  0
    5.1889    3.7827   -6.4286 C   0  0  0  0  0  4           0  0  0
    2.1381    0.0000   -1.3529 C   0  0  0  0  0  4           0  0  0
   -2.1369    4.4643    0.8862 C   0  0  0  0  0  4           0  0  0
   -2.8744    6.4948   -0.9140 C   0  0  0  0  0  4           0  0  0
    4.7406    3.8837   -5.1321 C   0  0  0  0  0  4           0  0  0
    3.3946    0.0910   -3.7832 C   0  0  0  0  0  4           0  0  0
    2.4761   -1.1969   -1.9724 C   0  0  0  0  0  4           0  0  0
   -3.3156    4.3558    0.1357 C   0  0  0  0  0  4           0  0  0
   -3.6797    5.3679   -0.7578 C   0  0  0  0  0  4           0  0  0
    3.1122   -1.1423   -3.2044 C   0  0  0  0  0  4           0  0  0
   -1.7336    3.4223    1.8345 C   0  0  0  0  0  4           0  0  0
    1.4665    0.0000   -0.0000 C   0  0  0  0  0  4           0  0  0
   -0.4587    1.3348    2.0858 C   0  0  0  0  0  4           0  0  0
   -0.4070    2.4824   -0.1021 C   0  0  0  0  0  4           0  0  0
   -0.5903    0.0000    1.3498 C   0  0  0  0  0  4           0  0  0
   -0.5472    1.1194   -0.7846 C   0  0  0  0  0  4           0  0  0
    6.0418    4.6596   -7.2578 C   0  0  0  0  0  4           0  0  0
  1 10  1  0     0  0
  2 11  1  0     0  0
  3 24  2  0     0  0
  4  5  1  0     0  0
  4 14  1  0     0  0
  5 12  2  0     0  0
  6 13  1  0     0  0
  6 15  2  0     0  0
  7 12  1  0     0  0
  7 13  1  0     0  0
  8 24  1  0     0  0
  8 26  1  0     0  0
  8 27  1  0     0  0
  9 25  1  0     0  0
  9 28  1  0     0  0
  9 29  1  0     0  0
 10 11  1  0     0  0
 10 17  2  0     0  0
 11 16  2  0     0  0
 12 18  1  0     0  0
 13 19  2  0     0  0
 14 18  2  0     0  0
 14 30  1  0     0  0
 15 20  1  0     0  0
 15 25  1  0     0  0
 16 21  1  0     0  0
 16 24  1  0     0  0
 17 22  1  0     0  0
 19 23  1  0     0  0
 20 23  2  0     0  0
 21 22  2  0     0  0
 26 28  1  0     0  0
 27 29  1  0     0  0
M  END
> <standard_type>
pIC50

> <# Confs.>
25

> <canonical_smiles>
ClC1=CC=CC(C(N2CCN(CC3=NC(NC4=NNC(C)=C4)=CC=C3)CC2)=O)=C1F

> <standard_relation>
=

> <Publication_ID>
nan

> <predicted_activity_value>
6.275724130399211

> <actual_activity_value>
6.113509274827518

> <Compound>
40

> <standard_units>
nM

> hash
10155212887812467807

$$$$
40_
XXILIB    08252103423D 0   0.00000     0.00000

 30 33  0     1  0            999 V2000
   -6.7265   -3.2731   -2.8834 Cl  0  0  0  0  0  1           0  0  0
   -5.6424   -1.4066   -0.9029 F   0  0  0  0  0  1           0  0  0
   -4.2145   -1.7005    2.1134 O   0  0  0  0  0  2           0  0  0
    4.1032   -5.6914   -2.6999 N   0  0  0  0  0  3           0  0  0
    3.8752   -4.8564   -3.7242 N   0  0  0  0  0  3           0  0  0
    2.4109   -1.2111   -1.9024 N   0  0  0  0  0  3           0  0  0
    3.2957   -2.5025   -3.7373 N   0  0  0  0  0  3           0  0  0
   -2.6092   -1.0636    0.5468 N   0  0  2  0  0  3           0  0  0
    0.0000    0.0000    0.0000 N   0  0  2  0  0  3           0  0  0
   -5.4954   -3.6120   -1.7273 C   0  0  0  0  0  4           0  0  0
   -5.0741   -2.6213   -0.8386 C   0  0  0  0  0  4           0  0  0
    3.5977   -3.6828   -3.1350 C   0  0  0  0  0  4           0  0  0
    3.0017   -1.2599   -3.1263 C   0  0  0  0  0  4           0  0  0
    3.9842   -5.1115   -1.4700 C   0  0  0  0  0  4           0  0  0
    2.1381    0.0000   -1.3529 C   0  0  0  0  0  4           0  0  0
   -4.0748   -2.8859    0.1070 C   0  0  0  0  0  4           0  0  0
   -4.9241   -4.8812   -1.6831 C   0  0  0  0  0  4           0  0  0
    3.6541   -3.7998   -1.7202 C   0  0  0  0  0  4           0  0  0
    3.3142   -0.0910   -3.8231 C   0  0  0  0  0  4           0  0  0
    2.4272    1.1969   -1.9967 C   0  0  0  0  0  4           0  0  0
   -3.5033   -4.1650    0.1444 C   0  0  0  0  0  4           0  0  0
   -3.9288   -5.1550   -0.7467 C   0  0  0  0  0  4           0  0  0
    3.0239    1.1423   -3.2482 C   0  0  0  0  0  4           0  0  0
   -3.6532   -1.8307    1.0324 C   0  0  0  0  0  4           0  0  0
    1.4665    0.0000   -0.0000 C   0  0  0  0  0  4           0  0  0
   -2.0721    0.0290    1.3517 C   0  0  0  0  0  4           0  0  0
   -2.0344   -1.1723   -0.7965 C   0  0  0  0  0  4           0  0  0
   -0.5438    0.0000    1.3711 C   0  0  0  0  0  4           0  0  0
   -0.5059   -1.1697   -0.7404 C   0  0  0  0  0  4           0  0  0
    4.2017   -5.8610   -0.2150 C   0  0  0  0  0  4           0  0  0
  1 10  1  0     0  0
  2 11  1  0     0  0
  3 24  2  0     0  0
  4  5  1  0     0  0
  4 14  1  0     0  0
  5 12  2  0     0  0
  6 13  1  0     0  0
  6 15  2  0     0  0
  7 12  1  0     0  0
  7 13  1  0     0  0
  8 24  1  0     0  0
  8 26  1  0     0  0
  8 27  1  0     0  0
  9 25  1  0     0  0
  9 28  1  0     0  0
  9 29  1  0     0  0
 10 11  1  0     0  0
 10 17  2  0     0  0
 11 16  2  0     0  0
 12 18  1  0     0  0
 13 19  2  0     0  0
 14 18  2  0     0  0
 14 30  1  0     0  0
 15 20  1  0     0  0
 15 25  1  0     0  0
 16 21  1  0     0  0
 16 24  1  0     0  0
 17 22  1  0     0  0
 19 23  1  0     0  0
 20 23  2  0     0  0
 21 22  2  0     0  0
 26 28  1  0     0  0
 27 29  1  0     0  0
M  END
> <standard_type>
pIC50

> <# Confs.>
25

> <canonical_smiles>
ClC1=CC=CC(C(N2CCN(CC3=NC(NC4=NNC(C)=C4)=CC=C3)CC2)=O)=C1F

> <standard_relation>
=

> <Publication_ID>
nan

> <predicted_activity_value>
6.275724130399211

> <actual_activity_value>
6.113509274827518

> <Compound>
40

> <standard_units>
nM

> hash
10155212887812467807

$$$$
40_
XXILIB    08252103423D 0   0.00000     0.00000

 30 33  0     1  0            999 V2000
   -3.1092   -6.7181   -0.6035 Cl  0  0  0  0  0  1           0  0  0
   -2.5209   -4.3992    1.0870 F   0  0  0  0  0  1           0  0  0
   -4.2145   -1.7005    2.1134 O   0  0  0  0  0  2           0  0  0
    7.5622    3.8714    3.1321 N   0  0  0  0  0  3           0  0  0
    6.5601    3.3498    2.4095 N   0  0  0  0  0  3           0  0  0
    3.1779    0.8896    1.5024 N   0  0  0  0  0  3           0  0  0
    4.9163    1.6634    2.9846 N   0  0  0  0  0  3           0  0  0
   -2.6092   -1.0636    0.5468 N   0  0  2  0  0  3           0  0  0
    0.0000    0.0000    0.0000 N   0  0  2  0  0  3           0  0  0
   -3.8568   -5.1692   -0.6983 C   0  0  0  0  0  4           0  0  0
   -3.4750   -4.1500    0.1758 C   0  0  0  0  0  4           0  0  0
    5.9861    2.4628    3.2372 C   0  0  0  0  0  4           0  0  0
    3.8226    1.9144    2.1218 C   0  0  0  0  0  4           0  0  0
    7.6654    3.3603    4.3935 C   0  0  0  0  0  4           0  0  0
    2.1381    1.1717    0.6765 C   0  0  0  0  0  4           0  0  0
   -4.0748   -2.8859    0.1070 C   0  0  0  0  0  4           0  0  0
   -4.8433   -4.9392   -1.6539 C   0  0  0  0  0  4           0  0  0
    6.6504    2.4372    4.4927 C   0  0  0  0  0  4           0  0  0
    3.4404    3.2403    1.9085 C   0  0  0  0  0  4           0  0  0
    1.7109    2.4699    0.4265 C   0  0  0  0  0  4           0  0  0
   -5.0681   -2.6622   -0.8562 C   0  0  0  0  0  4           0  0  0
   -5.4470   -3.6853   -1.7307 C   0  0  0  0  0  4           0  0  0
    2.3758    3.5129    1.0553 C   0  0  0  0  0  4           0  0  0
   -3.6532   -1.8307    1.0324 C   0  0  0  0  0  4           0  0  0
    1.4665   -0.0000    0.0000 C   0  0  0  0  0  4           0  0  0
   -2.0721    0.0290    1.3517 C   0  0  0  0  0  4           0  0  0
   -2.0344   -1.1723   -0.7965 C   0  0  0  0  0  4           0  0  0
   -0.5438    0.0000    1.3711 C   0  0  0  0  0  4           0  0  0
   -0.5059   -1.1697   -0.7404 C   0  0  0  0  0  4           0  0  0
    8.7005    3.8078    5.3487 C   0  0  0  0  0  4           0  0  0
  1 10  1  0     0  0
  2 11  1  0     0  0
  3 24  2  0     0  0
  4  5  1  0     0  0
  4 14  1  0     0  0
  5 12  2  0     0  0
  6 13  1  0     0  0
  6 15  2  0     0  0
  7 12  1  0     0  0
  7 13  1  0     0  0
  8 24  1  0     0  0
  8 26  1  0     0  0
  8 27  1  0     0  0
  9 25  1  0     0  0
  9 28  1  0     0  0
  9 29  1  0     0  0
 10 11  1  0     0  0
 10 17  2  0     0  0
 11 16  2  0     0  0
 12 18  1  0     0  0
 13 19  2  0     0  0
 14 18  2  0     0  0
 14 30  1  0     0  0
 15 20  1  0     0  0
 15 25  1  0     0  0
 16 21  1  0     0  0
 16 24  1  0     0  0
 17 22  1  0     0  0
 19 23  1  0     0  0
 20 23  2  0     0  0
 21 22  2  0     0  0
 26 28  1  0     0  0
 27 29  1  0     0  0
M  END
> <standard_type>
pIC50

> <# Confs.>
25

> <canonical_smiles>
ClC1=CC=CC(C(N2CCN(CC3=NC(NC4=NNC(C)=C4)=CC=C3)CC2)=O)=C1F

> <standard_relation>
=

> <Publication_ID>
nan

> <predicted_activity_value>
6.275724130399211

> <actual_activity_value>
6.113509274827518

> <Compound>
40

> <standard_units>
nM

> hash
10155212887812467807

$$$$
40_
XXILIB    08252103423D 0   0.00000     0.00000

 30 33  0     1  0            999 V2000
   -3.1092   -6.7181   -0.6035 Cl  0  0  0  0  0  1           0  0  0
   -2.5209   -4.3992    1.0870 F   0  0  0  0  0  1           0  0  0
   -4.2145   -1.7005    2.1134 O   0  0  0  0  0  2           0  0  0
    5.9323   -0.8709    5.0923 N   0  0  0  0  0  3           0  0  0
    6.1840    0.3383    4.5701 N   0  0  0  0  0  3           0  0  0
    3.1779    0.8896    1.5024 N   0  0  0  0  0  3           0  0  0
    4.9163    1.6634    2.9846 N   0  0  0  0  0  3           0  0  0
   -2.6092   -1.0636    0.5468 N   0  0  2  0  0  3           0  0  0
    0.0000    0.0000    0.0000 N   0  0  2  0  0  3           0  0  0
   -3.8568   -5.1692   -0.6983 C   0  0  0  0  0  4           0  0  0
   -3.4750   -4.1500    0.1758 C   0  0  0  0  0  4           0  0  0
    5.1428    0.5666    3.7547 C   0  0  0  0  0  4           0  0  0
    3.8226    1.9144    2.1218 C   0  0  0  0  0  4           0  0  0
    4.7729   -1.4394    4.6501 C   0  0  0  0  0  4           0  0  0
    2.1381    1.1717    0.6765 C   0  0  0  0  0  4           0  0  0
   -4.0748   -2.8859    0.1070 C   0  0  0  0  0  4           0  0  0
   -4.8433   -4.9392   -1.6539 C   0  0  0  0  0  4           0  0  0
    4.2341   -0.5254    3.7746 C   0  0  0  0  0  4           0  0  0
    3.4404    3.2403    1.9085 C   0  0  0  0  0  4           0  0  0
    1.7109    2.4699    0.4265 C   0  0  0  0  0  4           0  0  0
   -5.0681   -2.6622   -0.8562 C   0  0  0  0  0  4           0  0  0
   -5.4470   -3.6853   -1.7307 C   0  0  0  0  0  4           0  0  0
    2.3758    3.5129    1.0553 C   0  0  0  0  0  4           0  0  0
   -3.6532   -1.8307    1.0324 C   0  0  0  0  0  4           0  0  0
    1.4665   -0.0000    0.0000 C   0  0  0  0  0  4           0  0  0
   -2.0721    0.0290    1.3517 C   0  0  0  0  0  4           0  0  0
   -2.0344   -1.1723   -0.7965 C   0  0  0  0  0  4           0  0  0
   -0.5438    0.0000    1.3711 C   0  0  0  0  0  4           0  0  0
   -0.5059   -1.1697   -0.7404 C   0  0  0  0  0  4           0  0  0
    4.3139   -2.7666    5.1105 C   0  0  0  0  0  4           0  0  0
  1 10  1  0     0  0
  2 11  1  0     0  0
  3 24  2  0     0  0
  4  5  1  0     0  0
  4 14  1  0     0  0
  5 12  2  0     0  0
  6 13  1  0     0  0
  6 15  2  0     0  0
  7 12  1  0     0  0
  7 13  1  0     0  0
  8 24  1  0     0  0
  8 26  1  0     0  0
  8 27  1  0     0  0
  9 25  1  0     0  0
  9 28  1  0     0  0
  9 29  1  0     0  0
 10 11  1  0     0  0
 10 17  2  0     0  0
 11 16  2  0     0  0
 12 18  1  0     0  0
 13 19  2  0     0  0
 14 18  2  0     0  0
 14 30  1  0     0  0
 15 20  1  0     0  0
 15 25  1  0     0  0
 16 21  1  0     0  0
 16 24  1  0     0  0
 17 22  1  0     0  0
 19 23  1  0     0  0
 20 23  2  0     0  0
 21 22  2  0     0  0
 26 28  1  0     0  0
 27 29  1  0     0  0
M  END
> <standard_type>
pIC50

> <# Confs.>
25

> <canonical_smiles>
ClC1=CC=CC(C(N2CCN(CC3=NC(NC4=NNC(C)=C4)=CC=C3)CC2)=O)=C1F

> <standard_relation>
=

> <Publication_ID>
nan

> <predicted_activity_value>
6.275724130399211

> <actual_activity_value>
6.113509274827518

> <Compound>
40

> <standard_units>
nM

> hash
10155212887812467807

$$$$
40_
XXILIB    08252103423D 0   0.00000     0.00000

 30 33  0     1  0            999 V2000
   -6.7265   -3.2731   -2.8834 Cl  0  0  0  0  0  1           0  0  0
   -5.6424   -1.4066   -0.9029 F   0  0  0  0  0  1           0  0  0
   -4.2145   -1.7005    2.1134 O   0  0  0  0  0  2           0  0  0
    3.0496   -2.8636   -7.1588 N   0  0  0  0  0  3           0  0  0
    2.6360   -2.2264   -6.0536 N   0  0  0  0  0  3           0  0  0
    2.4109   -1.2111   -1.9024 N   0  0  0  0  0  3           0  0  0
    3.2957   -2.5025   -3.7373 N   0  0  0  0  0  3           0  0  0
   -2.6092   -1.0636    0.5468 N   0  0  2  0  0  3           0  0  0
    0.0000    0.0000    0.0000 N   0  0  2  0  0  3           0  0  0
   -5.4954   -3.6120   -1.7273 C   0  0  0  0  0  4           0  0  0
   -5.0741   -2.6213   -0.8386 C   0  0  0  0  0  4           0  0  0
    3.3422   -2.7947   -5.0638 C   0  0  0  0  0  4           0  0  0
    3.0017   -1.2599   -3.1263 C   0  0  0  0  0  4           0  0  0
    3.9930   -3.8230   -6.9298 C   0  0  0  0  0  4           0  0  0
    2.1381    0.0000   -1.3529 C   0  0  0  0  0  4           0  0  0
   -4.0748   -2.8859    0.1070 C   0  0  0  0  0  4           0  0  0
   -4.9241   -4.8812   -1.6831 C   0  0  0  0  0  4           0  0  0
    4.2052   -3.8030   -5.5708 C   0  0  0  0  0  4           0  0  0
    3.3142   -0.0910   -3.8231 C   0  0  0  0  0  4           0  0  0
    2.4272    1.1969   -1.9967 C   0  0  0  0  0  4           0  0  0
   -3.5033   -4.1650    0.1444 C   0  0  0  0  0  4           0  0  0
   -3.9288   -5.1550   -0.7467 C   0  0  0  0  0  4           0  0  0
    3.0239    1.1423   -3.2482 C   0  0  0  0  0  4           0  0  0
   -3.6532   -1.8307    1.0324 C   0  0  0  0  0  4           0  0  0
    1.4665    0.0000   -0.0000 C   0  0  0  0  0  4           0  0  0
   -2.0721    0.0290    1.3517 C   0  0  0  0  0  4           0  0  0
   -2.0344   -1.1723   -0.7965 C   0  0  0  0  0  4           0  0  0
   -0.5438    0.0000    1.3711 C   0  0  0  0  0  4           0  0  0
   -0.5059   -1.1697   -0.7404 C   0  0  0  0  0  4           0  0  0
    4.5808   -4.6333   -8.0170 C   0  0  0  0  0  4           0  0  0
  1 10  1  0     0  0
  2 11  1  0     0  0
  3 24  2  0     0  0
  4  5  1  0     0  0
  4 14  1  0     0  0
  5 12  2  0     0  0
  6 13  1  0     0  0
  6 15  2  0     0  0
  7 12  1  0     0  0
  7 13  1  0     0  0
  8 24  1  0     0  0
  8 26  1  0     0  0
  8 27  1  0     0  0
  9 25  1  0     0  0
  9 28  1  0     0  0
  9 29  1  0     0  0
 10 11  1  0     0  0
 10 17  2  0     0  0
 11 16  2  0     0  0
 12 18  1  0     0  0
 13 19  2  0     0  0
 14 18  2  0     0  0
 14 30  1  0     0  0
 15 20  1  0     0  0
 15 25  1  0     0  0
 16 21  1  0     0  0
 16 24  1  0     0  0
 17 22  1  0     0  0
 19 23  1  0     0  0
 20 23  2  0     0  0
 21 22  2  0     0  0
 26 28  1  0     0  0
 27 29  1  0     0  0
M  END
> <standard_type>
pIC50

> <# Confs.>
25

> <canonical_smiles>
ClC1=CC=CC(C(N2CCN(CC3=NC(NC4=NNC(C)=C4)=CC=C3)CC2)=O)=C1F

> <standard_relation>
=

> <Publication_ID>
nan

> <predicted_activity_value>
6.275724130399211

> <actual_activity_value>
6.113509274827518

> <Compound>
40

> <standard_units>
nM

> hash
10155212887812467807

$$$$
40_
XXILIB    08252103423D 0   0.00000     0.00000

 30 33  0     1  0            999 V2000
   -5.6558   -5.9877   -1.3273 Cl  0  0  0  0  0  1           0  0  0
   -4.0265   -4.5890    0.6653 F   0  0  0  0  0  1           0  0  0
   -3.8907   -2.0815    2.2076 O   0  0  0  0  0  2           0  0  0
    4.6621    4.6676    5.7143 N   0  0  0  0  0  3           0  0  0
    3.9093    4.2257    4.6962 N   0  0  0  0  0  3           0  0  0
    2.4109    1.0420    2.0000 N   0  0  0  0  0  3           0  0  0
    3.3374    1.9675    4.0255 N   0  0  0  0  0  3           0  0  0
   -2.6092   -1.0636    0.5468 N   0  0  2  0  0  3           0  0  0
    0.0000    0.0000    0.0000 N   0  0  2  0  0  3           0  0  0
   -5.4830   -4.2816   -1.1647 C   0  0  0  0  0  4           0  0  0
   -4.6680   -3.7501   -0.1638 C   0  0  0  0  0  4           0  0  0
    3.9467    2.8895    4.8165 C   0  0  0  0  0  4           0  0  0
    3.0285    2.0660    2.6476 C   0  0  0  0  0  4           0  0  0
    5.1889    3.6760    6.4902 C   0  0  0  0  0  4           0  0  0
    2.1381    1.1717    0.6765 C   0  0  0  0  0  4           0  0  0
   -4.5186   -2.3643   -0.0231 C   0  0  0  0  0  4           0  0  0
   -6.1600   -3.4355   -2.0394 C   0  0  0  0  0  4           0  0  0
    4.7406    2.5026    5.9295 C   0  0  0  0  0  4           0  0  0
    3.3946    3.2308    1.9704 C   0  0  0  0  0  4           0  0  0
    2.4761    2.3066   -0.0503 C   0  0  0  0  0  4           0  0  0
   -5.2042   -1.5188   -0.9059 C   0  0  0  0  0  4           0  0  0
   -6.0188   -2.0551   -1.9080 C   0  0  0  0  0  4           0  0  0
    3.1122    3.3462    0.6130 C   0  0  0  0  0  4           0  0  0
   -3.6532   -1.8307    1.0324 C   0  0  0  0  0  4           0  0  0
    1.4665    0.0000    0.0000 C   0  0  0  0  0  4           0  0  0
   -2.0721    0.0290    1.3517 C   0  0  0  0  0  4           0  0  0
   -2.0344   -1.1723   -0.7965 C   0  0  0  0  0  4           0  0  0
   -0.5438    0.0000    1.3711 C   0  0  0  0  0  4           0  0  0
   -0.5059   -1.1697   -0.7404 C   0  0  0  0  0  4           0  0  0
    6.0418    3.9557    7.6643 C   0  0  0  0  0  4           0  0  0
  1 10  1  0     0  0
  2 11  1  0     0  0
  3 24  2  0     0  0
  4  5  1  0     0  0
  4 14  1  0     0  0
  5 12  2  0     0  0
  6 13  1  0     0  0
  6 15  2  0     0  0
  7 12  1  0     0  0
  7 13  1  0     0  0
  8 24  1  0     0  0
  8 26  1  0     0  0
  8 27  1  0     0  0
  9 25  1  0     0  0
  9 28  1  0     0  0
  9 29  1  0     0  0
 10 11  1  0     0  0
 10 17  2  0     0  0
 11 16  2  0     0  0
 12 18  1  0     0  0
 13 19  2  0     0  0
 14 18  2  0     0  0
 14 30  1  0     0  0
 15 20  1  0     0  0
 15 25  1  0     0  0
 16 21  1  0     0  0
 16 24  1  0     0  0
 17 22  1  0     0  0
 19 23  1  0     0  0
 20 23  2  0     0  0
 21 22  2  0     0  0
 26 28  1  0     0  0
 27 29  1  0     0  0
M  END
> <standard_type>
pIC50

> <# Confs.>
25

> <canonical_smiles>
ClC1=CC=CC(C(N2CCN(CC3=NC(NC4=NNC(C)=C4)=CC=C3)CC2)=O)=C1F

> <standard_relation>
=

> <Publication_ID>
nan

> <predicted_activity_value>
6.275724130399211

> <actual_activity_value>
6.113509274827518

> <Compound>
40

> <standard_units>
nM

> hash
10155212887812467807

$$$$
40_
XXILIB    08252103423D 0   0.00000     0.00000

 30 33  0     1  0            999 V2000
   -5.1811    5.0937   -1.6556 Cl  0  0  0  0  0  1           0  0  0
   -4.0885    3.2255    0.3186 F   0  0  0  0  0  1           0  0  0
   -2.1023    3.4767    3.0013 O   0  0  0  0  0  2           0  0  0
    6.3722    1.9942   -6.0506 N   0  0  0  0  0  3           0  0  0
    5.2738    1.7235   -5.3304 N   0  0  0  0  0  3           0  0  0
    3.1779    0.8564   -1.5216 N   0  0  0  0  0  3           0  0  0
    4.9163    1.7531   -2.9329 N   0  0  0  0  0  3           0  0  0
   -0.9391    2.4434    1.2646 N   0  0  2  0  0  3           0  0  0
    0.0000    0.0000    0.0000 N   0  0  2  0  0  3           0  0  0
   -3.7235    5.2917   -0.7595 C   0  0  0  0  0  4           0  0  0
   -3.3213    4.3148    0.1530 C   0  0  0  0  0  4           0  0  0
    5.6636    1.9009   -4.0584 C   0  0  0  0  0  4           0  0  0
    3.8226    0.8804   -2.7188 C   0  0  0  0  0  4           0  0  0
    7.4599    2.3383   -5.3013 C   0  0  0  0  0  4           0  0  0
    2.1381    0.0000   -1.3529 C   0  0  0  0  0  4           0  0  0
   -2.1369    4.4643    0.8862 C   0  0  0  0  0  4           0  0  0
   -2.9472    6.4317   -0.9523 C   0  0  0  0  0  4           0  0  0
    7.0297    2.2861   -3.9958 C   0  0  0  0  0  4           0  0  0
    3.4404    0.0326   -3.7604 C   0  0  0  0  0  4           0  0  0
    1.7109   -0.8656   -2.3522 C   0  0  0  0  0  4           0  0  0
   -1.3617    5.6150    0.6881 C   0  0  0  0  0  4           0  0  0
   -1.7673    6.5907   -0.2277 C   0  0  0  0  0  4           0  0  0
    2.3758   -0.8426   -3.5699 C   0  0  0  0  0  4           0  0  0
   -1.7336    3.4223    1.8345 C   0  0  0  0  0  4           0  0  0
    1.4665    0.0000    0.0000 C   0  0  0  0  0  4           0  0  0
   -0.4587    1.3348    2.0858 C   0  0  0  0  0  4           0  0  0
   -0.4070    2.4824   -0.1021 C   0  0  0  0  0  4           0  0  0
   -0.5903    0.0000    1.3498 C   0  0  0  0  0  4           0  0  0
   -0.5472    1.1194   -0.7846 C   0  0  0  0  0  4           0  0  0
    8.7646    2.6789   -5.9063 C   0  0  0  0  0  4           0  0  0
  1 10  1  0     0  0
  2 11  1  0     0  0
  3 24  2  0     0  0
  4  5  1  0     0  0
  4 14  1  0     0  0
  5 12  2  0     0  0
  6 13  1  0     0  0
  6 15  2  0     0  0
  7 12  1  0     0  0
  7 13  1  0     0  0
  8 24  1  0     0  0
  8 26  1  0     0  0
  8 27  1  0     0  0
  9 25  1  0     0  0
  9 28  1  0     0  0
  9 29  1  0     0  0
 10 11  1  0     0  0
 10 17  2  0     0  0
 11 16  2  0     0  0
 12 18  1  0     0  0
 13 19  2  0     0  0
 14 18  2  0     0  0
 14 30  1  0     0  0
 15 20  1  0     0  0
 15 25  1  0     0  0
 16 21  1  0     0  0
 16 24  1  0     0  0
 17 22  1  0     0  0
 19 23  1  0     0  0
 20 23  2  0     0  0
 21 22  2  0     0  0
 26 28  1  0     0  0
 27 29  1  0     0  0
M  END
> <standard_type>
pIC50

> <# Confs.>
25

> <canonical_smiles>
ClC1=CC=CC(C(N2CCN(CC3=NC(NC4=NNC(C)=C4)=CC=C3)CC2)=O)=C1F

> <standard_relation>
=

> <Publication_ID>
nan

> <predicted_activity_value>
6.275724130399211

> <actual_activity_value>
6.113509274827518

> <Compound>
40

> <standard_units>
nM

> hash
10155212887812467807

$$$$
40_
XXILIB    08252103423D 0   0.00000     0.00000

 30 33  0     1  0            999 V2000
   -6.7265   -3.2731   -2.8834 Cl  0  0  0  0  0  1           0  0  0
   -5.6424   -1.4066   -0.9029 F   0  0  0  0  0  1           0  0  0
   -4.2145   -1.7005    2.1134 O   0  0  0  0  0  2           0  0  0
    5.0299   -4.5095    5.6230 N   0  0  0  0  0  3           0  0  0
    4.7749   -3.8536    4.4814 N   0  0  0  0  0  3           0  0  0
    2.4109   -1.0420    2.0000 N   0  0  0  0  0  3           0  0  0
    3.2957   -1.9854    4.0359 N   0  0  0  0  0  3           0  0  0
   -2.6092   -1.0636    0.5468 N   0  0  2  0  0  3           0  0  0
    0.0000    0.0000    0.0000 N   0  0  2  0  0  3           0  0  0
   -5.4954   -3.6120   -1.7273 C   0  0  0  0  0  4           0  0  0
   -5.0741   -2.6213   -0.8386 C   0  0  0  0  0  4           0  0  0
    3.8784   -2.9189    4.8335 C   0  0  0  0  0  4           0  0  0
    3.0017   -2.0775    2.6543 C   0  0  0  0  0  4           0  0  0
    4.3364   -4.0425    6.7018 C   0  0  0  0  0  4           0  0  0
    2.1381   -1.1717    0.6765 C   0  0  0  0  0  4           0  0  0
   -4.0748   -2.8859    0.1070 C   0  0  0  0  0  4           0  0  0
   -4.9241   -4.8812   -1.6831 C   0  0  0  0  0  4           0  0  0
    3.5748   -3.0038    6.2188 C   0  0  0  0  0  4           0  0  0
    3.3142   -3.2654    1.9904 C   0  0  0  0  0  4           0  0  0
    2.4272   -2.3276   -0.0382 C   0  0  0  0  0  4           0  0  0
   -3.5033   -4.1650    0.1444 C   0  0  0  0  0  4           0  0  0
   -3.9288   -5.1550   -0.7467 C   0  0  0  0  0  4           0  0  0
    3.0239   -3.3842    0.6349 C   0  0  0  0  0  4           0  0  0
   -3.6532   -1.8307    1.0324 C   0  0  0  0  0  4           0  0  0
    1.4665   -0.0000    0.0000 C   0  0  0  0  0  4           0  0  0
   -2.0721    0.0290    1.3517 C   0  0  0  0  0  4           0  0  0
   -2.0344   -1.1723   -0.7965 C   0  0  0  0  0  4           0  0  0
   -0.5438    0.0000    1.3711 C   0  0  0  0  0  4           0  0  0
   -0.5059   -1.1697   -0.7404 C   0  0  0  0  0  4           0  0  0
    4.4812   -4.6265    8.0516 C   0  0  0  0  0  4           0  0  0
  1 10  1  0     0  0
  2 11  1  0     0  0
  3 24  2  0     0  0
  4  5  1  0     0  0
  4 14  1  0     0  0
  5 12  2  0     0  0
  6 13  1  0     0  0
  6 15  2  0     0  0
  7 12  1  0     0  0
  7 13  1  0     0  0
  8 24  1  0     0  0
  8 26  1  0     0  0
  8 27  1  0     0  0
  9 25  1  0     0  0
  9 28  1  0     0  0
  9 29  1  0     0  0
 10 11  1  0     0  0
 10 17  2  0     0  0
 11 16  2  0     0  0
 12 18  1  0     0  0
 13 19  2  0     0  0
 14 18  2  0     0  0
 14 30  1  0     0  0
 15 20  1  0     0  0
 15 25  1  0     0  0
 16 21  1  0     0  0
 16 24  1  0     0  0
 17 22  1  0     0  0
 19 23  1  0     0  0
 20 23  2  0     0  0
 21 22  2  0     0  0
 26 28  1  0     0  0
 27 29  1  0     0  0
M  END
> <standard_type>
pIC50

> <# Confs.>
25

> <canonical_smiles>
ClC1=CC=CC(C(N2CCN(CC3=NC(NC4=NNC(C)=C4)=CC=C3)CC2)=O)=C1F

> <standard_relation>
=

> <Publication_ID>
nan

> <predicted_activity_value>
6.275724130399211

> <actual_activity_value>
6.113509274827518

> <Compound>
40

> <standard_units>
nM

> hash
10155212887812467807

$$$$
40_
XXILIB    08252103423D 0   0.00000     0.00000

 30 33  0     1  0            999 V2000
   -3.1092   -6.7181   -0.6035 Cl  0  0  0  0  0  1           0  0  0
   -2.5209   -4.3992    1.0870 F   0  0  0  0  0  1           0  0  0
   -4.2145   -1.7005    2.1134 O   0  0  0  0  0  2           0  0  0
    5.0299   -4.5095    5.6230 N   0  0  0  0  0  3           0  0  0
    4.7749   -3.8536    4.4814 N   0  0  0  0  0  3           0  0  0
    2.4109   -1.0420    2.0000 N   0  0  0  0  0  3           0  0  0
    3.2957   -1.9854    4.0359 N   0  0  0  0  0  3           0  0  0
   -2.6092   -1.0636    0.5468 N   0  0  2  0  0  3           0  0  0
    0.0000    0.0000    0.0000 N   0  0  2  0  0  3           0  0  0
   -3.8568   -5.1692   -0.6983 C   0  0  0  0  0  4           0  0  0
   -3.4750   -4.1500    0.1758 C   0  0  0  0  0  4           0  0  0
    3.8784   -2.9189    4.8335 C   0  0  0  0  0  4           0  0  0
    3.0017   -2.0775    2.6543 C   0  0  0  0  0  4           0  0  0
    4.3364   -4.0425    6.7018 C   0  0  0  0  0  4           0  0  0
    2.1381   -1.1717    0.6765 C   0  0  0  0  0  4           0  0  0
   -4.0748   -2.8859    0.1070 C   0  0  0  0  0  4           0  0  0
   -4.8433   -4.9392   -1.6539 C   0  0  0  0  0  4           0  0  0
    3.5748   -3.0038    6.2188 C   0  0  0  0  0  4           0  0  0
    3.3142   -3.2654    1.9904 C   0  0  0  0  0  4           0  0  0
    2.4272   -2.3276   -0.0382 C   0  0  0  0  0  4           0  0  0
   -5.0681   -2.6622   -0.8562 C   0  0  0  0  0  4           0  0  0
   -5.4470   -3.6853   -1.7307 C   0  0  0  0  0  4           0  0  0
    3.0239   -3.3842    0.6349 C   0  0  0  0  0  4           0  0  0
   -3.6532   -1.8307    1.0324 C   0  0  0  0  0  4           0  0  0
    1.4665   -0.0000    0.0000 C   0  0  0  0  0  4           0  0  0
   -2.0721    0.0290    1.3517 C   0  0  0  0  0  4           0  0  0
   -2.0344   -1.1723   -0.7965 C   0  0  0  0  0  4           0  0  0
   -0.5438    0.0000    1.3711 C   0  0  0  0  0  4           0  0  0
   -0.5059   -1.1697   -0.7404 C   0  0  0  0  0  4           0  0  0
    4.4812   -4.6265    8.0516 C   0  0  0  0  0  4           0  0  0
  1 10  1  0     0  0
  2 11  1  0     0  0
  3 24  2  0     0  0
  4  5  1  0     0  0
  4 14  1  0     0  0
  5 12  2  0     0  0
  6 13  1  0     0  0
  6 15  2  0     0  0
  7 12  1  0     0  0
  7 13  1  0     0  0
  8 24  1  0     0  0
  8 26  1  0     0  0
  8 27  1  0     0  0
  9 25  1  0     0  0
  9 28  1  0     0  0
  9 29  1  0     0  0
 10 11  1  0     0  0
 10 17  2  0     0  0
 11 16  2  0     0  0
 12 18  1  0     0  0
 13 19  2  0     0  0
 14 18  2  0     0  0
 14 30  1  0     0  0
 15 20  1  0     0  0
 15 25  1  0     0  0
 16 21  1  0     0  0
 16 24  1  0     0  0
 17 22  1  0     0  0
 19 23  1  0     0  0
 20 23  2  0     0  0
 21 22  2  0     0  0
 26 28  1  0     0  0
 27 29  1  0     0  0
M  END
> <standard_type>
pIC50

> <# Confs.>
25

> <canonical_smiles>
ClC1=CC=CC(C(N2CCN(CC3=NC(NC4=NNC(C)=C4)=CC=C3)CC2)=O)=C1F

> <standard_relation>
=

> <Publication_ID>
nan

> <predicted_activity_value>
6.275724130399211

> <actual_activity_value>
6.113509274827518

> <Compound>
40

> <standard_units>
nM

> hash
10155212887812467807

$$$$
40_
XXILIB    08252103423D 0   0.00000     0.00000

 30 33  0     1  0            999 V2000
   -3.1092   -6.7181   -0.6035 Cl  0  0  0  0  0  1           0  0  0
   -2.5209   -4.3992    1.0870 F   0  0  0  0  0  1           0  0  0
   -4.2145   -1.7005    2.1134 O   0  0  0  0  0  2           0  0  0
    7.4117   -0.7011    3.2663 N   0  0  0  0  0  3           0  0  0
    6.8488    0.4158    3.7500 N   0  0  0  0  0  3           0  0  0
    3.1779    0.8896    1.5024 N   0  0  0  0  0  3           0  0  0
    4.9163    1.6634    2.9846 N   0  0  0  0  0  3           0  0  0
   -2.6092   -1.0636    0.5468 N   0  0  2  0  0  3           0  0  0
    0.0000    0.0000    0.0000 N   0  0  2  0  0  3           0  0  0
   -3.8568   -5.1692   -0.6983 C   0  0  0  0  0  4           0  0  0
   -3.4750   -4.1500    0.1758 C   0  0  0  0  0  4           0  0  0
    5.8143    0.6450    2.9261 C   0  0  0  0  0  4           0  0  0
    3.8226    1.9144    2.1218 C   0  0  0  0  0  4           0  0  0
    6.7887   -1.2071    2.1624 C   0  0  0  0  0  4           0  0  0
    2.1381    1.1717    0.6765 C   0  0  0  0  0  4           0  0  0
   -4.0748   -2.8859    0.1070 C   0  0  0  0  0  4           0  0  0
   -4.8433   -4.9392   -1.6539 C   0  0  0  0  0  4           0  0  0
    5.7417   -0.3500    1.9146 C   0  0  0  0  0  4           0  0  0
    3.4404    3.2403    1.9085 C   0  0  0  0  0  4           0  0  0
    1.7109    2.4699    0.4265 C   0  0  0  0  0  4           0  0  0
   -5.0681   -2.6622   -0.8562 C   0  0  0  0  0  4           0  0  0
   -5.4470   -3.6853   -1.7307 C   0  0  0  0  0  4           0  0  0
    2.3758    3.5129    1.0553 C   0  0  0  0  0  4           0  0  0
   -3.6532   -1.8307    1.0324 C   0  0  0  0  0  4           0  0  0
    1.4665   -0.0000    0.0000 C   0  0  0  0  0  4           0  0  0
   -2.0721    0.0290    1.3517 C   0  0  0  0  0  4           0  0  0
   -2.0344   -1.1723   -0.7965 C   0  0  0  0  0  4           0  0  0
   -0.5438    0.0000    1.3711 C   0  0  0  0  0  4           0  0  0
   -0.5059   -1.1697   -0.7404 C   0  0  0  0  0  4           0  0  0
    7.2514   -2.4354    1.4831 C   0  0  0  0  0  4           0  0  0
  1 10  1  0     0  0
  2 11  1  0     0  0
  3 24  2  0     0  0
  4  5  1  0     0  0
  4 14  1  0     0  0
  5 12  2  0     0  0
  6 13  1  0     0  0
  6 15  2  0     0  0
  7 12  1  0     0  0
  7 13  1  0     0  0
  8 24  1  0     0  0
  8 26  1  0     0  0
  8 27  1  0     0  0
  9 25  1  0     0  0
  9 28  1  0     0  0
  9 29  1  0     0  0
 10 11  1  0     0  0
 10 17  2  0     0  0
 11 16  2  0     0  0
 12 18  1  0     0  0
 13 19  2  0     0  0
 14 18  2  0     0  0
 14 30  1  0     0  0
 15 20  1  0     0  0
 15 25  1  0     0  0
 16 21  1  0     0  0
 16 24  1  0     0  0
 17 22  1  0     0  0
 19 23  1  0     0  0
 20 23  2  0     0  0
 21 22  2  0     0  0
 26 28  1  0     0  0
 27 29  1  0     0  0
M  END
> <standard_type>
pIC50

> <# Confs.>
25

> <canonical_smiles>
ClC1=CC=CC(C(N2CCN(CC3=NC(NC4=NNC(C)=C4)=CC=C3)CC2)=O)=C1F

> <standard_relation>
=

> <Publication_ID>
nan

> <predicted_activity_value>
6.275724130399211

> <actual_activity_value>
6.113509274827518

> <Compound>
40

> <standard_units>
nM

> hash
10155212887812467807

$$$$
37_
XXILIB    08252103423D 0   0.00000     0.00000

 34 38  0     1  0            999 V2000
   -4.4763   -0.5147    6.6902 Cl  0  0  0  0  0  1           0  0  0
   -7.2040    2.2717    1.8616 F   0  0  0  0  0  1           0  0  0
   -2.7511    3.4627    2.9865 F   0  0  0  0  0  1           0  0  0
    6.3387   -0.6125    4.0802 O   0  0  0  0  0  2           0  0  0
    4.8066    0.5276    5.3254 O   0  0  0  0  0  2           0  0  0
   -0.6184    0.0000    1.2057 N   0  0  0  0  0  3           0  0  0
   -0.6727   -0.0022   -1.1735 N   0  0  0  0  0  3           0  0  0
    1.4052   -0.0000    0.0000 N   0  0  0  0  0  3           0  0  0
   -4.7192    1.2610    0.6947 N   0  0  0  0  0  3           0  0  0
   -3.7571   -0.3304    5.1367 C   0  0  0  0  0  4           0  0  0
   -6.3201    3.1538    2.3501 C   0  0  0  0  0  4           0  0  0
   -4.0571    3.7591    2.9215 C   0  0  0  0  0  4           0  0  0
    0.0000    0.0000    0.0000 C   0  0  0  0  0  4           0  0  0
   -1.9751   -0.0023    1.2375 C   0  0  0  0  0  4           0  0  0
   -2.0198   -0.0035   -1.1063 C   0  0  0  0  0  4           0  0  0
    2.3183   -0.0000    1.0570 C   0  0  0  0  0  4           0  0  0
   -2.5935   -0.0475    2.5760 C   0  0  0  0  0  4           0  0  0
   -4.9662    2.8335    2.4154 C   0  0  0  0  0  4           0  0  0
   -2.7330   -0.0074    0.0762 C   0  0  0  0  0  4           0  0  0
   -3.7924    0.6271    2.9042 C   0  0  0  0  0  4           0  0  0
    4.2215   -0.0390    3.1466 C   0  0  0  0  0  4           0  0  0
   -4.3774    0.4624    4.1737 C   0  0  0  0  0  4           0  0  0
   -2.5612   -0.9740    4.8490 C   0  0  0  0  0  4           0  0  0
   -6.7697    4.3957    2.7908 C   0  0  0  0  0  4           0  0  0
   -4.4962    5.0037    3.3654 C   0  0  0  0  0  4           0  0  0
    3.5690   -0.6116    0.8843 C   0  0  0  0  0  4           0  0  0
    2.0389    0.5910    2.2978 C   0  0  0  0  0  4           0  0  0
   -1.9925   -0.8357    3.5814 C   0  0  0  0  0  4           0  0  0
    4.5126   -0.6333    1.9157 C   0  0  0  0  0  4           0  0  0
    2.9788    0.5735    3.3348 C   0  0  0  0  0  4           0  0  0
   -5.8547    5.3213    3.2975 C   0  0  0  0  0  4           0  0  0
    5.2454   -0.0866    4.2040 C   0  0  0  0  0  4           0  0  0
   -4.4987    1.5357    1.9379 C   0  0  0  0  0  4           0  0  0
   -4.2282    0.0148    0.1204 C   0  0  0  0  0  4           0  0  0
  1 10  1  0     0  0
  2 11  1  0     0  0
  3 12  1  0     0  0
  4 32  2  0     0  0
  5 32  1  0     0  0
  6 13  2  0     0  0
  6 14  1  0     0  0
  7 13  1  0     0  0
  7 15  2  0     0  0
  8 13  1  0     0  0
  8 16  1  0     0  0
  9 33  2  0     0  0
  9 34  1  0     0  0
 10 22  2  0     0  0
 10 23  1  0     0  0
 11 18  1  0     0  0
 11 24  2  0     0  0
 12 18  2  0     0  0
 12 25  1  0     0  0
 14 17  1  0     0  0
 14 19  2  0     0  0
 15 19  1  0     0  0
 16 26  2  0     0  0
 16 27  1  0     0  0
 17 20  2  0     0  0
 17 28  1  0     0  0
 18 33  1  0     0  0
 19 34  1  0     0  0
 20 22  1  0     0  0
 20 33  1  0     0  0
 21 29  2  0     0  0
 21 30  1  0     0  0
 21 32  1  0     0  0
 23 28  2  0     0  0
 24 31  1  0     0  0
 25 31  2  0     0  0
 26 29  1  0     0  0
 27 30  2  0     0  0
M  END
> <standard_type>
pIC50

> <# Confs.>
25

> <canonical_smiles>
FC1=C(C2=NCC(C=NC(NC3=CC=C(C(O)=O)C=C3)=N4)=C4C5=C2C=C(Cl)C=C5)C(F)=CC=C1

> <standard_relation>
=

> <Publication_ID>
nan

> <predicted_activity_value>
6.823908740944319

> <actual_activity_value>
6.764471553092451

> <Compound>
37

> <standard_units>
nM

> hash
16786373744617436441

$$$$
37_
XXILIB    08252103423D 0   0.00000     0.00000

 34 38  0     1  0            999 V2000
   -4.4763   -0.5147    6.6902 Cl  0  0  0  0  0  1           0  0  0
   -7.2040    2.2717    1.8616 F   0  0  0  0  0  1           0  0  0
   -2.7511    3.4627    2.9865 F   0  0  0  0  0  1           0  0  0
    6.3367   -0.6170   -4.0819 O   0  0  0  0  0  2           0  0  0
    4.8042    0.5220   -5.3275 O   0  0  0  0  0  2           0  0  0
   -0.6184    0.0000    1.2057 N   0  0  0  0  0  3           0  0  0
   -0.6727   -0.0022   -1.1735 N   0  0  0  0  0  3           0  0  0
    1.4052    0.0000    0.0000 N   0  0  0  0  0  3           0  0  0
   -4.7192    1.2610    0.6947 N   0  0  0  0  0  3           0  0  0
   -3.7571   -0.3304    5.1367 C   0  0  0  0  0  4           0  0  0
   -6.3201    3.1538    2.3501 C   0  0  0  0  0  4           0  0  0
   -4.0571    3.7591    2.9215 C   0  0  0  0  0  4           0  0  0
    0.0000    0.0000    0.0000 C   0  0  0  0  0  4           0  0  0
   -1.9751   -0.0023    1.2375 C   0  0  0  0  0  4           0  0  0
   -2.0198   -0.0035   -1.1063 C   0  0  0  0  0  4           0  0  0
    2.3183    0.0000   -1.0570 C   0  0  0  0  0  4           0  0  0
   -2.5935   -0.0475    2.5760 C   0  0  0  0  0  4           0  0  0
   -4.9662    2.8335    2.4154 C   0  0  0  0  0  4           0  0  0
   -2.7330   -0.0074    0.0762 C   0  0  0  0  0  4           0  0  0
   -3.7924    0.6271    2.9042 C   0  0  0  0  0  4           0  0  0
    4.2189   -0.0448   -3.1488 C   0  0  0  0  0  4           0  0  0
   -4.3774    0.4624    4.1737 C   0  0  0  0  0  4           0  0  0
   -2.5612   -0.9740    4.8490 C   0  0  0  0  0  4           0  0  0
   -6.7697    4.3957    2.7908 C   0  0  0  0  0  4           0  0  0
   -4.4962    5.0037    3.3654 C   0  0  0  0  0  4           0  0  0
    3.5690   -0.6116   -0.8843 C   0  0  0  0  0  4           0  0  0
    2.0385    0.5901   -2.2981 C   0  0  0  0  0  4           0  0  0
   -1.9925   -0.8357    3.5814 C   0  0  0  0  0  4           0  0  0
    4.5118   -0.6353   -1.9165 C   0  0  0  0  0  4           0  0  0
    2.9773    0.5699   -3.3362 C   0  0  0  0  0  4           0  0  0
   -5.8547    5.3213    3.2975 C   0  0  0  0  0  4           0  0  0
    5.2424   -0.0933   -4.2066 C   0  0  0  0  0  4           0  0  0
   -4.4987    1.5357    1.9379 C   0  0  0  0  0  4           0  0  0
   -4.2282    0.0148    0.1204 C   0  0  0  0  0  4           0  0  0
  1 10  1  0     0  0
  2 11  1  0     0  0
  3 12  1  0     0  0
  4 32  2  0     0  0
  5 32  1  0     0  0
  6 13  2  0     0  0
  6 14  1  0     0  0
  7 13  1  0     0  0
  7 15  2  0     0  0
  8 13  1  0     0  0
  8 16  1  0     0  0
  9 33  2  0     0  0
  9 34  1  0     0  0
 10 22  2  0     0  0
 10 23  1  0     0  0
 11 18  1  0     0  0
 11 24  2  0     0  0
 12 18  2  0     0  0
 12 25  1  0     0  0
 14 17  1  0     0  0
 14 19  2  0     0  0
 15 19  1  0     0  0
 16 26  2  0     0  0
 16 27  1  0     0  0
 17 20  2  0     0  0
 17 28  1  0     0  0
 18 33  1  0     0  0
 19 34  1  0     0  0
 20 22  1  0     0  0
 20 33  1  0     0  0
 21 29  2  0     0  0
 21 30  1  0     0  0
 21 32  1  0     0  0
 23 28  2  0     0  0
 24 31  1  0     0  0
 25 31  2  0     0  0
 26 29  1  0     0  0
 27 30  2  0     0  0
M  END
> <standard_type>
pIC50

> <# Confs.>
25

> <canonical_smiles>
FC1=C(C2=NCC(C=NC(NC3=CC=C(C(O)=O)C=C3)=N4)=C4C5=C2C=C(Cl)C=C5)C(F)=CC=C1

> <standard_relation>
=

> <Publication_ID>
nan

> <predicted_activity_value>
6.823908740944319

> <actual_activity_value>
6.764471553092451

> <Compound>
37

> <standard_units>
nM

> hash
16786373744617436441

$$$$
37_
XXILIB    08252103423D 0   0.00000     0.00000

 34 38  0     1  0            999 V2000
   -4.4974    0.4979    6.6790 Cl  0  0  0  0  0  1           0  0  0
   -7.1678   -2.3551    1.8325 F   0  0  0  0  0  1           0  0  0
   -2.7021   -3.4446    3.0084 F   0  0  0  0  0  1           0  0  0
    6.3367    0.6170    4.0819 O   0  0  0  0  0  2           0  0  0
    4.8042   -0.5220    5.3275 O   0  0  0  0  0  2           0  0  0
   -0.6187   -0.0000    1.2055 N   0  0  0  0  0  3           0  0  0
   -0.6724    0.0036   -1.1741 N   0  0  0  0  0  3           0  0  0
    1.4052   -0.0000    0.0000 N   0  0  0  0  0  3           0  0  0
   -4.7056   -1.2854    0.6890 N   0  0  0  0  0  3           0  0  0
   -3.7699    0.3174    5.1289 C   0  0  0  0  0  4           0  0  0
   -6.2712   -3.2130    2.3405 C   0  0  0  0  0  4           0  0  0
   -4.0018   -3.7666    2.9383 C   0  0  0  0  0  4           0  0  0
   -0.0000    0.0000    0.0000 C   0  0  0  0  0  4           0  0  0
   -1.9753    0.0005    1.2359 C   0  0  0  0  0  4           0  0  0
   -2.0193    0.0033   -1.1076 C   0  0  0  0  0  4           0  0  0
    2.3183    0.0000    1.0570 C   0  0  0  0  0  4           0  0  0
   -2.5956    0.0429    2.5728 C   0  0  0  0  0  4           0  0  0
   -4.9233   -2.8686    2.4054 C   0  0  0  0  0  4           0  0  0
   -2.7329    0.0034    0.0742 C   0  0  0  0  0  4           0  0  0
   -3.7874   -0.6448    2.8991 C   0  0  0  0  0  4           0  0  0
    4.2189    0.0448    3.1488 C   0  0  0  0  0  4           0  0  0
   -4.3775   -0.4860    4.1667 C   0  0  0  0  0  4           0  0  0
   -2.5808    0.9747    4.8428 C   0  0  0  0  0  4           0  0  0
   -6.7020   -4.4531    2.8045 C   0  0  0  0  0  4           0  0  0
   -4.4219   -5.0095    3.4047 C   0  0  0  0  0  4           0  0  0
    3.5690    0.6116    0.8843 C   0  0  0  0  0  4           0  0  0
    2.0385   -0.5901    2.2981 C   0  0  0  0  0  4           0  0  0
   -2.0061    0.8398    3.5775 C   0  0  0  0  0  4           0  0  0
    4.5118    0.6353    1.9165 C   0  0  0  0  0  4           0  0  0
    2.9773   -0.5699    3.3362 C   0  0  0  0  0  4           0  0  0
   -5.7748   -5.3508    3.3384 C   0  0  0  0  0  4           0  0  0
    5.2424    0.0933    4.2066 C   0  0  0  0  0  4           0  0  0
   -4.4797   -1.5612    1.9312 C   0  0  0  0  0  4           0  0  0
   -4.2282   -0.0325    0.1172 C   0  0  0  0  0  4           0  0  0
  1 10  1  0     0  0
  2 11  1  0     0  0
  3 12  1  0     0  0
  4 32  2  0     0  0
  5 32  1  0     0  0
  6 13  2  0     0  0
  6 14  1  0     0  0
  7 13  1  0     0  0
  7 15  2  0     0  0
  8 13  1  0     0  0
  8 16  1  0     0  0
  9 33  2  0     0  0
  9 34  1  0     0  0
 10 22  2  0     0  0
 10 23  1  0     0  0
 11 18  1  0     0  0
 11 24  2  0     0  0
 12 18  2  0     0  0
 12 25  1  0     0  0
 14 17  1  0     0  0
 14 19  2  0     0  0
 15 19  1  0     0  0
 16 26  2  0     0  0
 16 27  1  0     0  0
 17 20  2  0     0  0
 17 28  1  0     0  0
 18 33  1  0     0  0
 19 34  1  0     0  0
 20 22  1  0     0  0
 20 33  1  0     0  0
 21 29  2  0     0  0
 21 30  1  0     0  0
 21 32  1  0     0  0
 23 28  2  0     0  0
 24 31  1  0     0  0
 25 31  2  0     0  0
 26 29  1  0     0  0
 27 30  2  0     0  0
M  END
> <standard_type>
pIC50

> <# Confs.>
25

> <canonical_smiles>
FC1=C(C2=NCC(C=NC(NC3=CC=C(C(O)=O)C=C3)=N4)=C4C5=C2C=C(Cl)C=C5)C(F)=CC=C1

> <standard_relation>
=

> <Publication_ID>
nan

> <predicted_activity_value>
6.823908740944319

> <actual_activity_value>
6.764471553092451

> <Compound>
37

> <standard_units>
nM

> hash
16786373744617436441

$$$$
37_
XXILIB    08252103423D 0   0.00000     0.00000

 34 38  0     1  0            999 V2000
   -4.4974    0.4979    6.6790 Cl  0  0  0  0  0  1           0  0  0
   -7.1678   -2.3551    1.8325 F   0  0  0  0  0  1           0  0  0
   -2.7021   -3.4446    3.0084 F   0  0  0  0  0  1           0  0  0
    6.3387    0.6125   -4.0802 O   0  0  0  0  0  2           0  0  0
    4.8066   -0.5276   -5.3254 O   0  0  0  0  0  2           0  0  0
   -0.6187   -0.0000    1.2055 N   0  0  0  0  0  3           0  0  0
   -0.6724    0.0036   -1.1741 N   0  0  0  0  0  3           0  0  0
    1.4052    0.0000    0.0000 N   0  0  0  0  0  3           0  0  0
   -4.7056   -1.2854    0.6890 N   0  0  0  0  0  3           0  0  0
   -3.7699    0.3174    5.1289 C   0  0  0  0  0  4           0  0  0
   -6.2712   -3.2130    2.3405 C   0  0  0  0  0  4           0  0  0
   -4.0018   -3.7666    2.9383 C   0  0  0  0  0  4           0  0  0
   -0.0000    0.0000    0.0000 C   0  0  0  0  0  4           0  0  0
   -1.9753    0.0005    1.2359 C   0  0  0  0  0  4           0  0  0
   -2.0193    0.0033   -1.1076 C   0  0  0  0  0  4           0  0  0
    2.3183    0.0000   -1.0570 C   0  0  0  0  0  4           0  0  0
   -2.5956    0.0429    2.5728 C   0  0  0  0  0  4           0  0  0
   -4.9233   -2.8686    2.4054 C   0  0  0  0  0  4           0  0  0
   -2.7329    0.0034    0.0742 C   0  0  0  0  0  4           0  0  0
   -3.7874   -0.6448    2.8991 C   0  0  0  0  0  4           0  0  0
    4.2215    0.0390   -3.1466 C   0  0  0  0  0  4           0  0  0
   -4.3775   -0.4860    4.1667 C   0  0  0  0  0  4           0  0  0
   -2.5808    0.9747    4.8428 C   0  0  0  0  0  4           0  0  0
   -6.7020   -4.4531    2.8045 C   0  0  0  0  0  4           0  0  0
   -4.4219   -5.0095    3.4047 C   0  0  0  0  0  4           0  0  0
    3.5690    0.6116   -0.8843 C   0  0  0  0  0  4           0  0  0
    2.0389   -0.5910   -2.2978 C   0  0  0  0  0  4           0  0  0
   -2.0061    0.8398    3.5775 C   0  0  0  0  0  4           0  0  0
    4.5126    0.6333   -1.9157 C   0  0  0  0  0  4           0  0  0
    2.9788   -0.5735   -3.3348 C   0  0  0  0  0  4           0  0  0
   -5.7748   -5.3508    3.3384 C   0  0  0  0  0  4           0  0  0
    5.2454    0.0866   -4.2040 C   0  0  0  0  0  4           0  0  0
   -4.4797   -1.5612    1.9312 C   0  0  0  0  0  4           0  0  0
   -4.2282   -0.0325    0.1172 C   0  0  0  0  0  4           0  0  0
  1 10  1  0     0  0
  2 11  1  0     0  0
  3 12  1  0     0  0
  4 32  2  0     0  0
  5 32  1  0     0  0
  6 13  2  0     0  0
  6 14  1  0     0  0
  7 13  1  0     0  0
  7 15  2  0     0  0
  8 13  1  0     0  0
  8 16  1  0     0  0
  9 33  2  0     0  0
  9 34  1  0     0  0
 10 22  2  0     0  0
 10 23  1  0     0  0
 11 18  1  0     0  0
 11 24  2  0     0  0
 12 18  2  0     0  0
 12 25  1  0     0  0
 14 17  1  0     0  0
 14 19  2  0     0  0
 15 19  1  0     0  0
 16 26  2  0     0  0
 16 27  1  0     0  0
 17 20  2  0     0  0
 17 28  1  0     0  0
 18 33  1  0     0  0
 19 34  1  0     0  0
 20 22  1  0     0  0
 20 33  1  0     0  0
 21 29  2  0     0  0
 21 30  1  0     0  0
 21 32  1  0     0  0
 23 28  2  0     0  0
 24 31  1  0     0  0
 25 31  2  0     0  0
 26 29  1  0     0  0
 27 30  2  0     0  0
M  END
> <standard_type>
pIC50

> <# Confs.>
25

> <canonical_smiles>
FC1=C(C2=NCC(C=NC(NC3=CC=C(C(O)=O)C=C3)=N4)=C4C5=C2C=C(Cl)C=C5)C(F)=CC=C1

> <standard_relation>
=

> <Publication_ID>
nan

> <predicted_activity_value>
6.823908740944319

> <actual_activity_value>
6.764471553092451

> <Compound>
37

> <standard_units>
nM

> hash
16786373744617436441

$$$$
37_
XXILIB    08252103423D 0   0.00000     0.00000

 34 38  0     1  0            999 V2000
   -4.4763   -0.5147    6.6902 Cl  0  0  0  0  0  1           0  0  0
   -7.2040    2.2717    1.8616 F   0  0  0  0  0  1           0  0  0
   -2.7511    3.4627    2.9865 F   0  0  0  0  0  1           0  0  0
    6.0655    0.9806   -4.3282 O   0  0  0  0  0  2           0  0  0
    5.1487   -0.9905   -5.0150 O   0  0  0  0  0  2           0  0  0
   -0.6184    0.0000    1.2057 N   0  0  0  0  0  3           0  0  0
   -0.6727   -0.0022   -1.1735 N   0  0  0  0  0  3           0  0  0
    1.4052    0.0000    0.0000 N   0  0  0  0  0  3           0  0  0
   -4.7192    1.2610    0.6947 N   0  0  0  0  0  3           0  0  0
   -3.7571   -0.3304    5.1367 C   0  0  0  0  0  4           0  0  0
   -6.3201    3.1538    2.3501 C   0  0  0  0  0  4           0  0  0
   -4.0571    3.7591    2.9215 C   0  0  0  0  0  4           0  0  0
    0.0000    0.0000    0.0000 C   0  0  0  0  0  4           0  0  0
   -1.9751   -0.0023    1.2375 C   0  0  0  0  0  4           0  0  0
   -2.0198   -0.0035   -1.1063 C   0  0  0  0  0  4           0  0  0
    2.3183    0.0000   -1.0570 C   0  0  0  0  0  4           0  0  0
   -2.5935   -0.0475    2.5760 C   0  0  0  0  0  4           0  0  0
   -4.9662    2.8335    2.4154 C   0  0  0  0  0  4           0  0  0
   -2.7330   -0.0074    0.0762 C   0  0  0  0  0  4           0  0  0
   -3.7924    0.6271    2.9042 C   0  0  0  0  0  4           0  0  0
    4.2215    0.0390   -3.1466 C   0  0  0  0  0  4           0  0  0
   -4.3774    0.4624    4.1737 C   0  0  0  0  0  4           0  0  0
   -2.5612   -0.9740    4.8490 C   0  0  0  0  0  4           0  0  0
   -6.7697    4.3957    2.7908 C   0  0  0  0  0  4           0  0  0
   -4.4962    5.0037    3.3654 C   0  0  0  0  0  4           0  0  0
    3.5690    0.6116   -0.8843 C   0  0  0  0  0  4           0  0  0
    2.0389   -0.5910   -2.2978 C   0  0  0  0  0  4           0  0  0
   -1.9925   -0.8357    3.5814 C   0  0  0  0  0  4           0  0  0
    4.5126    0.6333   -1.9157 C   0  0  0  0  0  4           0  0  0
    2.9788   -0.5735   -3.3348 C   0  0  0  0  0  4           0  0  0
   -5.8547    5.3213    3.2975 C   0  0  0  0  0  4           0  0  0
    5.2454    0.0866   -4.2040 C   0  0  0  0  0  4           0  0  0
   -4.4987    1.5357    1.9379 C   0  0  0  0  0  4           0  0  0
   -4.2282    0.0148    0.1204 C   0  0  0  0  0  4           0  0  0
  1 10  1  0     0  0
  2 11  1  0     0  0
  3 12  1  0     0  0
  4 32  2  0     0  0
  5 32  1  0     0  0
  6 13  2  0     0  0
  6 14  1  0     0  0
  7 13  1  0     0  0
  7 15  2  0     0  0
  8 13  1  0     0  0
  8 16  1  0     0  0
  9 33  2  0     0  0
  9 34  1  0     0  0
 10 22  2  0     0  0
 10 23  1  0     0  0
 11 18  1  0     0  0
 11 24  2  0     0  0
 12 18  2  0     0  0
 12 25  1  0     0  0
 14 17  1  0     0  0
 14 19  2  0     0  0
 15 19  1  0     0  0
 16 26  2  0     0  0
 16 27  1  0     0  0
 17 20  2  0     0  0
 17 28  1  0     0  0
 18 33  1  0     0  0
 19 34  1  0     0  0
 20 22  1  0     0  0
 20 33  1  0     0  0
 21 29  2  0     0  0
 21 30  1  0     0  0
 21 32  1  0     0  0
 23 28  2  0     0  0
 24 31  1  0     0  0
 25 31  2  0     0  0
 26 29  1  0     0  0
 27 30  2  0     0  0
M  END
> <standard_type>
pIC50

> <# Confs.>
25

> <canonical_smiles>
FC1=C(C2=NCC(C=NC(NC3=CC=C(C(O)=O)C=C3)=N4)=C4C5=C2C=C(Cl)C=C5)C(F)=CC=C1

> <standard_relation>
=

> <Publication_ID>
nan

> <predicted_activity_value>
6.823908740944319

> <actual_activity_value>
6.764471553092451

> <Compound>
37

> <standard_units>
nM

> hash
16786373744617436441

$$$$
37_
XXILIB    08252103423D 0   0.00000     0.00000

 34 38  0     1  0            999 V2000
   -4.4974    0.4979    6.6790 Cl  0  0  0  0  0  1           0  0  0
   -7.1678   -2.3551    1.8325 F   0  0  0  0  0  1           0  0  0
   -2.7021   -3.4446    3.0084 F   0  0  0  0  0  1           0  0  0
    6.0641   -0.9862   -4.3287 O   0  0  0  0  0  2           0  0  0
    5.1471    0.9843   -5.0170 O   0  0  0  0  0  2           0  0  0
   -0.6187   -0.0000    1.2055 N   0  0  0  0  0  3           0  0  0
   -0.6724    0.0036   -1.1741 N   0  0  0  0  0  3           0  0  0
    1.4052    0.0000    0.0000 N   0  0  0  0  0  3           0  0  0
   -4.7056   -1.2854    0.6890 N   0  0  0  0  0  3           0  0  0
   -3.7699    0.3174    5.1289 C   0  0  0  0  0  4           0  0  0
   -6.2712   -3.2130    2.3405 C   0  0  0  0  0  4           0  0  0
   -4.0018   -3.7666    2.9383 C   0  0  0  0  0  4           0  0  0
   -0.0000    0.0000    0.0000 C   0  0  0  0  0  4           0  0  0
   -1.9753    0.0005    1.2359 C   0  0  0  0  0  4           0  0  0
   -2.0193    0.0033   -1.1076 C   0  0  0  0  0  4           0  0  0
    2.3183    0.0000   -1.0570 C   0  0  0  0  0  4           0  0  0
   -2.5956    0.0429    2.5728 C   0  0  0  0  0  4           0  0  0
   -4.9233   -2.8686    2.4054 C   0  0  0  0  0  4           0  0  0
   -2.7329    0.0034    0.0742 C   0  0  0  0  0  4           0  0  0
   -3.7874   -0.6448    2.8991 C   0  0  0  0  0  4           0  0  0
    4.2189   -0.0448   -3.1488 C   0  0  0  0  0  4           0  0  0
   -4.3775   -0.4860    4.1667 C   0  0  0  0  0  4           0  0  0
   -2.5808    0.9747    4.8428 C   0  0  0  0  0  4           0  0  0
   -6.7020   -4.4531    2.8045 C   0  0  0  0  0  4           0  0  0
   -4.4219   -5.0095    3.4047 C   0  0  0  0  0  4           0  0  0
    3.5690   -0.6116   -0.8843 C   0  0  0  0  0  4           0  0  0
    2.0385    0.5901   -2.2981 C   0  0  0  0  0  4           0  0  0
   -2.0061    0.8398    3.5775 C   0  0  0  0  0  4           0  0  0
    4.5118   -0.6353   -1.9165 C   0  0  0  0  0  4           0  0  0
    2.9773    0.5699   -3.3362 C   0  0  0  0  0  4           0  0  0
   -5.7748   -5.3508    3.3384 C   0  0  0  0  0  4           0  0  0
    5.2424   -0.0933   -4.2066 C   0  0  0  0  0  4           0  0  0
   -4.4797   -1.5612    1.9312 C   0  0  0  0  0  4           0  0  0
   -4.2282   -0.0325    0.1172 C   0  0  0  0  0  4           0  0  0
  1 10  1  0     0  0
  2 11  1  0     0  0
  3 12  1  0     0  0
  4 32  2  0     0  0
  5 32  1  0     0  0
  6 13  2  0     0  0
  6 14  1  0     0  0
  7 13  1  0     0  0
  7 15  2  0     0  0
  8 13  1  0     0  0
  8 16  1  0     0  0
  9 33  2  0     0  0
  9 34  1  0     0  0
 10 22  2  0     0  0
 10 23  1  0     0  0
 11 18  1  0     0  0
 11 24  2  0     0  0
 12 18  2  0     0  0
 12 25  1  0     0  0
 14 17  1  0     0  0
 14 19  2  0     0  0
 15 19  1  0     0  0
 16 26  2  0     0  0
 16 27  1  0     0  0
 17 20  2  0     0  0
 17 28  1  0     0  0
 18 33  1  0     0  0
 19 34  1  0     0  0
 20 22  1  0     0  0
 20 33  1  0     0  0
 21 29  2  0     0  0
 21 30  1  0     0  0
 21 32  1  0     0  0
 23 28  2  0     0  0
 24 31  1  0     0  0
 25 31  2  0     0  0
 26 29  1  0     0  0
 27 30  2  0     0  0
M  END
> <standard_type>
pIC50

> <# Confs.>
25

> <canonical_smiles>
FC1=C(C2=NCC(C=NC(NC3=CC=C(C(O)=O)C=C3)=N4)=C4C5=C2C=C(Cl)C=C5)C(F)=CC=C1

> <standard_relation>
=

> <Publication_ID>
nan

> <predicted_activity_value>
6.823908740944319

> <actual_activity_value>
6.764471553092451

> <Compound>
37

> <standard_units>
nM

> hash
16786373744617436441

$$$$
37_
XXILIB    08252103423D 0   0.00000     0.00000

 34 38  0     1  0            999 V2000
   -4.4763   -0.5147    6.6902 Cl  0  0  0  0  0  1           0  0  0
   -7.2040    2.2717    1.8616 F   0  0  0  0  0  1           0  0  0
   -2.7511    3.4627    2.9865 F   0  0  0  0  0  1           0  0  0
    5.1090    0.3949    5.3162 O   0  0  0  0  0  2           0  0  0
    6.3520   -0.7317    3.7724 O   0  0  0  0  0  2           0  0  0
   -0.6184    0.0000    1.2057 N   0  0  0  0  0  3           0  0  0
   -0.6727   -0.0022   -1.1735 N   0  0  0  0  0  3           0  0  0
    1.4052   -0.0000    0.0000 N   0  0  0  0  0  3           0  0  0
   -4.7192    1.2610    0.6947 N   0  0  0  0  0  3           0  0  0
   -3.7571   -0.3304    5.1367 C   0  0  0  0  0  4           0  0  0
   -6.3201    3.1538    2.3501 C   0  0  0  0  0  4           0  0  0
   -4.0571    3.7591    2.9215 C   0  0  0  0  0  4           0  0  0
    0.0000    0.0000    0.0000 C   0  0  0  0  0  4           0  0  0
   -1.9751   -0.0023    1.2375 C   0  0  0  0  0  4           0  0  0
   -2.0198   -0.0035   -1.1063 C   0  0  0  0  0  4           0  0  0
    2.3183   -0.0000    1.0570 C   0  0  0  0  0  4           0  0  0
   -2.5935   -0.0475    2.5760 C   0  0  0  0  0  4           0  0  0
   -4.9662    2.8335    2.4154 C   0  0  0  0  0  4           0  0  0
   -2.7330   -0.0074    0.0762 C   0  0  0  0  0  4           0  0  0
   -3.7924    0.6271    2.9042 C   0  0  0  0  0  4           0  0  0
    4.2215   -0.0390    3.1466 C   0  0  0  0  0  4           0  0  0
   -4.3774    0.4624    4.1737 C   0  0  0  0  0  4           0  0  0
   -2.5612   -0.9740    4.8490 C   0  0  0  0  0  4           0  0  0
   -6.7697    4.3957    2.7908 C   0  0  0  0  0  4           0  0  0
   -4.4962    5.0037    3.3654 C   0  0  0  0  0  4           0  0  0
    3.5690   -0.6116    0.8843 C   0  0  0  0  0  4           0  0  0
    2.0389    0.5910    2.2978 C   0  0  0  0  0  4           0  0  0
   -1.9925   -0.8357    3.5814 C   0  0  0  0  0  4           0  0  0
    4.5126   -0.6333    1.9157 C   0  0  0  0  0  4           0  0  0
    2.9788    0.5735    3.3348 C   0  0  0  0  0  4           0  0  0
   -5.8547    5.3213    3.2975 C   0  0  0  0  0  4           0  0  0
    5.2454   -0.0866    4.2040 C   0  0  0  0  0  4           0  0  0
   -4.4987    1.5357    1.9379 C   0  0  0  0  0  4           0  0  0
   -4.2282    0.0148    0.1204 C   0  0  0  0  0  4           0  0  0
  1 10  1  0     0  0
  2 11  1  0     0  0
  3 12  1  0     0  0
  4 32  2  0     0  0
  5 32  1  0     0  0
  6 13  2  0     0  0
  6 14  1  0     0  0
  7 13  1  0     0  0
  7 15  2  0     0  0
  8 13  1  0     0  0
  8 16  1  0     0  0
  9 33  2  0     0  0
  9 34  1  0     0  0
 10 22  2  0     0  0
 10 23  1  0     0  0
 11 18  1  0     0  0
 11 24  2  0     0  0
 12 18  2  0     0  0
 12 25  1  0     0  0
 14 17  1  0     0  0
 14 19  2  0     0  0
 15 19  1  0     0  0
 16 26  2  0     0  0
 16 27  1  0     0  0
 17 20  2  0     0  0
 17 28  1  0     0  0
 18 33  1  0     0  0
 19 34  1  0     0  0
 20 22  1  0     0  0
 20 33  1  0     0  0
 21 29  2  0     0  0
 21 30  1  0     0  0
 21 32  1  0     0  0
 23 28  2  0     0  0
 24 31  1  0     0  0
 25 31  2  0     0  0
 26 29  1  0     0  0
 27 30  2  0     0  0
M  END
> <standard_type>
pIC50

> <# Confs.>
25

> <canonical_smiles>
FC1=C(C2=NCC(C=NC(NC3=CC=C(C(O)=O)C=C3)=N4)=C4C5=C2C=C(Cl)C=C5)C(F)=CC=C1

> <standard_relation>
=

> <Publication_ID>
nan

> <predicted_activity_value>
6.823908740944319

> <actual_activity_value>
6.764471553092451

> <Compound>
37

> <standard_units>
nM

> hash
16786373744617436441

$$$$
37_
XXILIB    08252103423D 0   0.00000     0.00000

 34 38  0     1  0            999 V2000
   -4.4974    0.4979    6.6790 Cl  0  0  0  0  0  1           0  0  0
   -7.1678   -2.3551    1.8325 F   0  0  0  0  0  1           0  0  0
   -2.7021   -3.4446    3.0084 F   0  0  0  0  0  1           0  0  0
    5.1046   -0.3849    5.3200 O   0  0  0  0  0  2           0  0  0
    6.3482    0.7403    3.7757 O   0  0  0  0  0  2           0  0  0
   -0.6187   -0.0000    1.2055 N   0  0  0  0  0  3           0  0  0
   -0.6724    0.0036   -1.1741 N   0  0  0  0  0  3           0  0  0
    1.4052   -0.0000    0.0000 N   0  0  0  0  0  3           0  0  0
   -4.7056   -1.2854    0.6890 N   0  0  0  0  0  3           0  0  0
   -3.7699    0.3174    5.1289 C   0  0  0  0  0  4           0  0  0
   -6.2712   -3.2130    2.3405 C   0  0  0  0  0  4           0  0  0
   -4.0018   -3.7666    2.9383 C   0  0  0  0  0  4           0  0  0
   -0.0000    0.0000    0.0000 C   0  0  0  0  0  4           0  0  0
   -1.9753    0.0005    1.2359 C   0  0  0  0  0  4           0  0  0
   -2.0193    0.0033   -1.1076 C   0  0  0  0  0  4           0  0  0
    2.3183    0.0000    1.0570 C   0  0  0  0  0  4           0  0  0
   -2.5956    0.0429    2.5728 C   0  0  0  0  0  4           0  0  0
   -4.9233   -2.8686    2.4054 C   0  0  0  0  0  4           0  0  0
   -2.7329    0.0034    0.0742 C   0  0  0  0  0  4           0  0  0
   -3.7874   -0.6448    2.8991 C   0  0  0  0  0  4           0  0  0
    4.2189    0.0448    3.1488 C   0  0  0  0  0  4           0  0  0
   -4.3775   -0.4860    4.1667 C   0  0  0  0  0  4           0  0  0
   -2.5808    0.9747    4.8428 C   0  0  0  0  0  4           0  0  0
   -6.7020   -4.4531    2.8045 C   0  0  0  0  0  4           0  0  0
   -4.4219   -5.0095    3.4047 C   0  0  0  0  0  4           0  0  0
    3.5690    0.6116    0.8843 C   0  0  0  0  0  4           0  0  0
    2.0385   -0.5901    2.2981 C   0  0  0  0  0  4           0  0  0
   -2.0061    0.8398    3.5775 C   0  0  0  0  0  4           0  0  0
    4.5118    0.6353    1.9165 C   0  0  0  0  0  4           0  0  0
    2.9773   -0.5699    3.3362 C   0  0  0  0  0  4           0  0  0
   -5.7748   -5.3508    3.3384 C   0  0  0  0  0  4           0  0  0
    5.2424    0.0933    4.2066 C   0  0  0  0  0  4           0  0  0
   -4.4797   -1.5612    1.9312 C   0  0  0  0  0  4           0  0  0
   -4.2282   -0.0325    0.1172 C   0  0  0  0  0  4           0  0  0
  1 10  1  0     0  0
  2 11  1  0     0  0
  3 12  1  0     0  0
  4 32  2  0     0  0
  5 32  1  0     0  0
  6 13  2  0     0  0
  6 14  1  0     0  0
  7 13  1  0     0  0
  7 15  2  0     0  0
  8 13  1  0     0  0
  8 16  1  0     0  0
  9 33  2  0     0  0
  9 34  1  0     0  0
 10 22  2  0     0  0
 10 23  1  0     0  0
 11 18  1  0     0  0
 11 24  2  0     0  0
 12 18  2  0     0  0
 12 25  1  0     0  0
 14 17  1  0     0  0
 14 19  2  0     0  0
 15 19  1  0     0  0
 16 26  2  0     0  0
 16 27  1  0     0  0
 17 20  2  0     0  0
 17 28  1  0     0  0
 18 33  1  0     0  0
 19 34  1  0     0  0
 20 22  1  0     0  0
 20 33  1  0     0  0
 21 29  2  0     0  0
 21 30  1  0     0  0
 21 32  1  0     0  0
 23 28  2  0     0  0
 24 31  1  0     0  0
 25 31  2  0     0  0
 26 29  1  0     0  0
 27 30  2  0     0  0
M  END
> <standard_type>
pIC50

> <# Confs.>
25

> <canonical_smiles>
FC1=C(C2=NCC(C=NC(NC3=CC=C(C(O)=O)C=C3)=N4)=C4C5=C2C=C(Cl)C=C5)C(F)=CC=C1

> <standard_relation>
=

> <Publication_ID>
nan

> <predicted_activity_value>
6.823908740944319

> <actual_activity_value>
6.764471553092451

> <Compound>
37

> <standard_units>
nM

> hash
16786373744617436441

$$$$
37_
XXILIB    08252103423D 0   0.00000     0.00000

 34 38  0     1  0            999 V2000
   -4.4763   -0.5147    6.6902 Cl  0  0  0  0  0  1           0  0  0
   -7.2040    2.2717    1.8616 F   0  0  0  0  0  1           0  0  0
   -2.7511    3.4627    2.9865 F   0  0  0  0  0  1           0  0  0
    5.1046    0.3849   -5.3200 O   0  0  0  0  0  2           0  0  0
    6.3482   -0.7403   -3.7757 O   0  0  0  0  0  2           0  0  0
   -0.6184    0.0000    1.2057 N   0  0  0  0  0  3           0  0  0
   -0.6727   -0.0022   -1.1735 N   0  0  0  0  0  3           0  0  0
    1.4052    0.0000    0.0000 N   0  0  0  0  0  3           0  0  0
   -4.7192    1.2610    0.6947 N   0  0  0  0  0  3           0  0  0
   -3.7571   -0.3304    5.1367 C   0  0  0  0  0  4           0  0  0
   -6.3201    3.1538    2.3501 C   0  0  0  0  0  4           0  0  0
   -4.0571    3.7591    2.9215 C   0  0  0  0  0  4           0  0  0
    0.0000    0.0000    0.0000 C   0  0  0  0  0  4           0  0  0
   -1.9751   -0.0023    1.2375 C   0  0  0  0  0  4           0  0  0
   -2.0198   -0.0035   -1.1063 C   0  0  0  0  0  4           0  0  0
    2.3183    0.0000   -1.0570 C   0  0  0  0  0  4           0  0  0
   -2.5935   -0.0475    2.5760 C   0  0  0  0  0  4           0  0  0
   -4.9662    2.8335    2.4154 C   0  0  0  0  0  4           0  0  0
   -2.7330   -0.0074    0.0762 C   0  0  0  0  0  4           0  0  0
   -3.7924    0.6271    2.9042 C   0  0  0  0  0  4           0  0  0
    4.2189   -0.0448   -3.1488 C   0  0  0  0  0  4           0  0  0
   -4.3774    0.4624    4.1737 C   0  0  0  0  0  4           0  0  0
   -2.5612   -0.9740    4.8490 C   0  0  0  0  0  4           0  0  0
   -6.7697    4.3957    2.7908 C   0  0  0  0  0  4           0  0  0
   -4.4962    5.0037    3.3654 C   0  0  0  0  0  4           0  0  0
    3.5690   -0.6116   -0.8843 C   0  0  0  0  0  4           0  0  0
    2.0385    0.5901   -2.2981 C   0  0  0  0  0  4           0  0  0
   -1.9925   -0.8357    3.5814 C   0  0  0  0  0  4           0  0  0
    4.5118   -0.6353   -1.9165 C   0  0  0  0  0  4           0  0  0
    2.9773    0.5699   -3.3362 C   0  0  0  0  0  4           0  0  0
   -5.8547    5.3213    3.2975 C   0  0  0  0  0  4           0  0  0
    5.2424   -0.0933   -4.2066 C   0  0  0  0  0  4           0  0  0
   -4.4987    1.5357    1.9379 C   0  0  0  0  0  4           0  0  0
   -4.2282    0.0148    0.1204 C   0  0  0  0  0  4           0  0  0
  1 10  1  0     0  0
  2 11  1  0     0  0
  3 12  1  0     0  0
  4 32  2  0     0  0
  5 32  1  0     0  0
  6 13  2  0     0  0
  6 14  1  0     0  0
  7 13  1  0     0  0
  7 15  2  0     0  0
  8 13  1  0     0  0
  8 16  1  0     0  0
  9 33  2  0     0  0
  9 34  1  0     0  0
 10 22  2  0     0  0
 10 23  1  0     0  0
 11 18  1  0     0  0
 11 24  2  0     0  0
 12 18  2  0     0  0
 12 25  1  0     0  0
 14 17  1  0     0  0
 14 19  2  0     0  0
 15 19  1  0     0  0
 16 26  2  0     0  0
 16 27  1  0     0  0
 17 20  2  0     0  0
 17 28  1  0     0  0
 18 33  1  0     0  0
 19 34  1  0     0  0
 20 22  1  0     0  0
 20 33  1  0     0  0
 21 29  2  0     0  0
 21 30  1  0     0  0
 21 32  1  0     0  0
 23 28  2  0     0  0
 24 31  1  0     0  0
 25 31  2  0     0  0
 26 29  1  0     0  0
 27 30  2  0     0  0
M  END
> <standard_type>
pIC50

> <# Confs.>
25

> <canonical_smiles>
FC1=C(C2=NCC(C=NC(NC3=CC=C(C(O)=O)C=C3)=N4)=C4C5=C2C=C(Cl)C=C5)C(F)=CC=C1

> <standard_relation>
=

> <Publication_ID>
nan

> <predicted_activity_value>
6.823908740944319

> <actual_activity_value>
6.764471553092451

> <Compound>
37

> <standard_units>
nM

> hash
16786373744617436441

$$$$
37_
XXILIB    08252103423D 0   0.00000     0.00000

 34 38  0     1  0            999 V2000
   -4.4974    0.4979    6.6790 Cl  0  0  0  0  0  1           0  0  0
   -7.1678   -2.3551    1.8325 F   0  0  0  0  0  1           0  0  0
   -2.7021   -3.4446    3.0084 F   0  0  0  0  0  1           0  0  0
    5.1090   -0.3949   -5.3162 O   0  0  0  0  0  2           0  0  0
    6.3520    0.7317   -3.7724 O   0  0  0  0  0  2           0  0  0
   -0.6187   -0.0000    1.2055 N   0  0  0  0  0  3           0  0  0
   -0.6724    0.0036   -1.1741 N   0  0  0  0  0  3           0  0  0
    1.4052    0.0000    0.0000 N   0  0  0  0  0  3           0  0  0
   -4.7056   -1.2854    0.6890 N   0  0  0  0  0  3           0  0  0
   -3.7699    0.3174    5.1289 C   0  0  0  0  0  4           0  0  0
   -6.2712   -3.2130    2.3405 C   0  0  0  0  0  4           0  0  0
   -4.0018   -3.7666    2.9383 C   0  0  0  0  0  4           0  0  0
   -0.0000    0.0000    0.0000 C   0  0  0  0  0  4           0  0  0
   -1.9753    0.0005    1.2359 C   0  0  0  0  0  4           0  0  0
   -2.0193    0.0033   -1.1076 C   0  0  0  0  0  4           0  0  0
    2.3183    0.0000   -1.0570 C   0  0  0  0  0  4           0  0  0
   -2.5956    0.0429    2.5728 C   0  0  0  0  0  4           0  0  0
   -4.9233   -2.8686    2.4054 C   0  0  0  0  0  4           0  0  0
   -2.7329    0.0034    0.0742 C   0  0  0  0  0  4           0  0  0
   -3.7874   -0.6448    2.8991 C   0  0  0  0  0  4           0  0  0
    4.2215    0.0390   -3.1466 C   0  0  0  0  0  4           0  0  0
   -4.3775   -0.4860    4.1667 C   0  0  0  0  0  4           0  0  0
   -2.5808    0.9747    4.8428 C   0  0  0  0  0  4           0  0  0
   -6.7020   -4.4531    2.8045 C   0  0  0  0  0  4           0  0  0
   -4.4219   -5.0095    3.4047 C   0  0  0  0  0  4           0  0  0
    3.5690    0.6116   -0.8843 C   0  0  0  0  0  4           0  0  0
    2.0389   -0.5910   -2.2978 C   0  0  0  0  0  4           0  0  0
   -2.0061    0.8398    3.5775 C   0  0  0  0  0  4           0  0  0
    4.5126    0.6333   -1.9157 C   0  0  0  0  0  4           0  0  0
    2.9788   -0.5735   -3.3348 C   0  0  0  0  0  4           0  0  0
   -5.7748   -5.3508    3.3384 C   0  0  0  0  0  4           0  0  0
    5.2454    0.0866   -4.2040 C   0  0  0  0  0  4           0  0  0
   -4.4797   -1.5612    1.9312 C   0  0  0  0  0  4           0  0  0
   -4.2282   -0.0325    0.1172 C   0  0  0  0  0  4           0  0  0
  1 10  1  0     0  0
  2 11  1  0     0  0
  3 12  1  0     0  0
  4 32  2  0     0  0
  5 32  1  0     0  0
  6 13  2  0     0  0
  6 14  1  0     0  0
  7 13  1  0     0  0
  7 15  2  0     0  0
  8 13  1  0     0  0
  8 16  1  0     0  0
  9 33  2  0     0  0
  9 34  1  0     0  0
 10 22  2  0     0  0
 10 23  1  0     0  0
 11 18  1  0     0  0
 11 24  2  0     0  0
 12 18  2  0     0  0
 12 25  1  0     0  0
 14 17  1  0     0  0
 14 19  2  0     0  0
 15 19  1  0     0  0
 16 26  2  0     0  0
 16 27  1  0     0  0
 17 20  2  0     0  0
 17 28  1  0     0  0
 18 33  1  0     0  0
 19 34  1  0     0  0
 20 22  1  0     0  0
 20 33  1  0     0  0
 21 29  2  0     0  0
 21 30  1  0     0  0
 21 32  1  0     0  0
 23 28  2  0     0  0
 24 31  1  0     0  0
 25 31  2  0     0  0
 26 29  1  0     0  0
 27 30  2  0     0  0
M  END
> <standard_type>
pIC50

> <# Confs.>
25

> <canonical_smiles>
FC1=C(C2=NCC(C=NC(NC3=CC=C(C(O)=O)C=C3)=N4)=C4C5=C2C=C(Cl)C=C5)C(F)=CC=C1

> <standard_relation>
=

> <Publication_ID>
nan

> <predicted_activity_value>
6.823908740944319

> <actual_activity_value>
6.764471553092451

> <Compound>
37

> <standard_units>
nM

> hash
16786373744617436441

$$$$
37_
XXILIB    08252103423D 0   0.00000     0.00000

 34 38  0     1  0            999 V2000
   -4.4763   -0.5147    6.6902 Cl  0  0  0  0  0  1           0  0  0
   -7.2040    2.2717    1.8616 F   0  0  0  0  0  1           0  0  0
   -2.7511    3.4627    2.9865 F   0  0  0  0  0  1           0  0  0
    6.0641    0.9862    4.3287 O   0  0  0  0  0  2           0  0  0
    5.1471   -0.9843    5.0170 O   0  0  0  0  0  2           0  0  0
   -0.6184    0.0000    1.2057 N   0  0  0  0  0  3           0  0  0
   -0.6727   -0.0022   -1.1735 N   0  0  0  0  0  3           0  0  0
    1.4052   -0.0000    0.0000 N   0  0  0  0  0  3           0  0  0
   -4.7192    1.2610    0.6947 N   0  0  0  0  0  3           0  0  0
   -3.7571   -0.3304    5.1367 C   0  0  0  0  0  4           0  0  0
   -6.3201    3.1538    2.3501 C   0  0  0  0  0  4           0  0  0
   -4.0571    3.7591    2.9215 C   0  0  0  0  0  4           0  0  0
    0.0000    0.0000    0.0000 C   0  0  0  0  0  4           0  0  0
   -1.9751   -0.0023    1.2375 C   0  0  0  0  0  4           0  0  0
   -2.0198   -0.0035   -1.1063 C   0  0  0  0  0  4           0  0  0
    2.3183    0.0000    1.0570 C   0  0  0  0  0  4           0  0  0
   -2.5935   -0.0475    2.5760 C   0  0  0  0  0  4           0  0  0
   -4.9662    2.8335    2.4154 C   0  0  0  0  0  4           0  0  0
   -2.7330   -0.0074    0.0762 C   0  0  0  0  0  4           0  0  0
   -3.7924    0.6271    2.9042 C   0  0  0  0  0  4           0  0  0
    4.2189    0.0448    3.1488 C   0  0  0  0  0  4           0  0  0
   -4.3774    0.4624    4.1737 C   0  0  0  0  0  4           0  0  0
   -2.5612   -0.9740    4.8490 C   0  0  0  0  0  4           0  0  0
   -6.7697    4.3957    2.7908 C   0  0  0  0  0  4           0  0  0
   -4.4962    5.0037    3.3654 C   0  0  0  0  0  4           0  0  0
    3.5690    0.6116    0.8843 C   0  0  0  0  0  4           0  0  0
    2.0385   -0.5901    2.2981 C   0  0  0  0  0  4           0  0  0
   -1.9925   -0.8357    3.5814 C   0  0  0  0  0  4           0  0  0
    4.5118    0.6353    1.9165 C   0  0  0  0  0  4           0  0  0
    2.9773   -0.5699    3.3362 C   0  0  0  0  0  4           0  0  0
   -5.8547    5.3213    3.2975 C   0  0  0  0  0  4           0  0  0
    5.2424    0.0933    4.2066 C   0  0  0  0  0  4           0  0  0
   -4.4987    1.5357    1.9379 C   0  0  0  0  0  4           0  0  0
   -4.2282    0.0148    0.1204 C   0  0  0  0  0  4           0  0  0
  1 10  1  0     0  0
  2 11  1  0     0  0
  3 12  1  0     0  0
  4 32  2  0     0  0
  5 32  1  0     0  0
  6 13  2  0     0  0
  6 14  1  0     0  0
  7 13  1  0     0  0
  7 15  2  0     0  0
  8 13  1  0     0  0
  8 16  1  0     0  0
  9 33  2  0     0  0
  9 34  1  0     0  0
 10 22  2  0     0  0
 10 23  1  0     0  0
 11 18  1  0     0  0
 11 24  2  0     0  0
 12 18  2  0     0  0
 12 25  1  0     0  0
 14 17  1  0     0  0
 14 19  2  0     0  0
 15 19  1  0     0  0
 16 26  2  0     0  0
 16 27  1  0     0  0
 17 20  2  0     0  0
 17 28  1  0     0  0
 18 33  1  0     0  0
 19 34  1  0     0  0
 20 22  1  0     0  0
 20 33  1  0     0  0
 21 29  2  0     0  0
 21 30  1  0     0  0
 21 32  1  0     0  0
 23 28  2  0     0  0
 24 31  1  0     0  0
 25 31  2  0     0  0
 26 29  1  0     0  0
 27 30  2  0     0  0
M  END
> <standard_type>
pIC50

> <# Confs.>
25

> <canonical_smiles>
FC1=C(C2=NCC(C=NC(NC3=CC=C(C(O)=O)C=C3)=N4)=C4C5=C2C=C(Cl)C=C5)C(F)=CC=C1

> <standard_relation>
=

> <Publication_ID>
nan

> <predicted_activity_value>
6.823908740944319

> <actual_activity_value>
6.764471553092451

> <Compound>
37

> <standard_units>
nM

> hash
16786373744617436441

$$$$
37_
XXILIB    08252103423D 0   0.00000     0.00000

 34 38  0     1  0            999 V2000
   -4.4974    0.4979    6.6790 Cl  0  0  0  0  0  1           0  0  0
   -7.1678   -2.3551    1.8325 F   0  0  0  0  0  1           0  0  0
   -2.7021   -3.4446    3.0084 F   0  0  0  0  0  1           0  0  0
    6.0655   -0.9806    4.3282 O   0  0  0  0  0  2           0  0  0
    5.1487    0.9905    5.0150 O   0  0  0  0  0  2           0  0  0
   -0.6187   -0.0000    1.2055 N   0  0  0  0  0  3           0  0  0
   -0.6724    0.0036   -1.1741 N   0  0  0  0  0  3           0  0  0
    1.4052   -0.0000    0.0000 N   0  0  0  0  0  3           0  0  0
   -4.7056   -1.2854    0.6890 N   0  0  0  0  0  3           0  0  0
   -3.7699    0.3174    5.1289 C   0  0  0  0  0  4           0  0  0
   -6.2712   -3.2130    2.3405 C   0  0  0  0  0  4           0  0  0
   -4.0018   -3.7666    2.9383 C   0  0  0  0  0  4           0  0  0
   -0.0000    0.0000    0.0000 C   0  0  0  0  0  4           0  0  0
   -1.9753    0.0005    1.2359 C   0  0  0  0  0  4           0  0  0
   -2.0193    0.0033   -1.1076 C   0  0  0  0  0  4           0  0  0
    2.3183   -0.0000    1.0570 C   0  0  0  0  0  4           0  0  0
   -2.5956    0.0429    2.5728 C   0  0  0  0  0  4           0  0  0
   -4.9233   -2.8686    2.4054 C   0  0  0  0  0  4           0  0  0
   -2.7329    0.0034    0.0742 C   0  0  0  0  0  4           0  0  0
   -3.7874   -0.6448    2.8991 C   0  0  0  0  0  4           0  0  0
    4.2215   -0.0390    3.1466 C   0  0  0  0  0  4           0  0  0
   -4.3775   -0.4860    4.1667 C   0  0  0  0  0  4           0  0  0
   -2.5808    0.9747    4.8428 C   0  0  0  0  0  4           0  0  0
   -6.7020   -4.4531    2.8045 C   0  0  0  0  0  4           0  0  0
   -4.4219   -5.0095    3.4047 C   0  0  0  0  0  4           0  0  0
    3.5690   -0.6116    0.8843 C   0  0  0  0  0  4           0  0  0
    2.0389    0.5910    2.2978 C   0  0  0  0  0  4           0  0  0
   -2.0061    0.8398    3.5775 C   0  0  0  0  0  4           0  0  0
    4.5126   -0.6333    1.9157 C   0  0  0  0  0  4           0  0  0
    2.9788    0.5735    3.3348 C   0  0  0  0  0  4           0  0  0
   -5.7748   -5.3508    3.3384 C   0  0  0  0  0  4           0  0  0
    5.2454   -0.0866    4.2040 C   0  0  0  0  0  4           0  0  0
   -4.4797   -1.5612    1.9312 C   0  0  0  0  0  4           0  0  0
   -4.2282   -0.0325    0.1172 C   0  0  0  0  0  4           0  0  0
  1 10  1  0     0  0
  2 11  1  0     0  0
  3 12  1  0     0  0
  4 32  2  0     0  0
  5 32  1  0     0  0
  6 13  2  0     0  0
  6 14  1  0     0  0
  7 13  1  0     0  0
  7 15  2  0     0  0
  8 13  1  0     0  0
  8 16  1  0     0  0
  9 33  2  0     0  0
  9 34  1  0     0  0
 10 22  2  0     0  0
 10 23  1  0     0  0
 11 18  1  0     0  0
 11 24  2  0     0  0
 12 18  2  0     0  0
 12 25  1  0     0  0
 14 17  1  0     0  0
 14 19  2  0     0  0
 15 19  1  0     0  0
 16 26  2  0     0  0
 16 27  1  0     0  0
 17 20  2  0     0  0
 17 28  1  0     0  0
 18 33  1  0     0  0
 19 34  1  0     0  0
 20 22  1  0     0  0
 20 33  1  0     0  0
 21 29  2  0     0  0
 21 30  1  0     0  0
 21 32  1  0     0  0
 23 28  2  0     0  0
 24 31  1  0     0  0
 25 31  2  0     0  0
 26 29  1  0     0  0
 27 30  2  0     0  0
M  END
> <standard_type>
pIC50

> <# Confs.>
25

> <canonical_smiles>
FC1=C(C2=NCC(C=NC(NC3=CC=C(C(O)=O)C=C3)=N4)=C4C5=C2C=C(Cl)C=C5)C(F)=CC=C1

> <standard_relation>
=

> <Publication_ID>
nan

> <predicted_activity_value>
6.823908740944319

> <actual_activity_value>
6.764471553092451

> <Compound>
37

> <standard_units>
nM

> hash
16786373744617436441

$$$$
37_
XXILIB    08252103423D 0   0.00000     0.00000

 34 38  0     1  0            999 V2000
   -4.4763   -0.5147    6.6902 Cl  0  0  0  0  0  1           0  0  0
   -7.2040    2.2717    1.8616 F   0  0  0  0  0  1           0  0  0
   -2.7511    3.4627    2.9865 F   0  0  0  0  0  1           0  0  0
    5.0102   -0.9806   -5.2397 O   0  0  0  0  0  2           0  0  0
    5.8230    0.9905   -4.4325 O   0  0  0  0  0  2           0  0  0
   -0.6184    0.0000    1.2057 N   0  0  0  0  0  3           0  0  0
   -0.6727   -0.0022   -1.1735 N   0  0  0  0  0  3           0  0  0
    1.4052    0.0000    0.0000 N   0  0  0  0  0  3           0  0  0
   -4.7192    1.2610    0.6947 N   0  0  0  0  0  3           0  0  0
   -3.7571   -0.3304    5.1367 C   0  0  0  0  0  4           0  0  0
   -6.3201    3.1538    2.3501 C   0  0  0  0  0  4           0  0  0
   -4.0571    3.7591    2.9215 C   0  0  0  0  0  4           0  0  0
    0.0000    0.0000    0.0000 C   0  0  0  0  0  4           0  0  0
   -1.9751   -0.0023    1.2375 C   0  0  0  0  0  4           0  0  0
   -2.0198   -0.0035   -1.1063 C   0  0  0  0  0  4           0  0  0
    2.3183    0.0000   -1.0570 C   0  0  0  0  0  4           0  0  0
   -2.5935   -0.0475    2.5760 C   0  0  0  0  0  4           0  0  0
   -4.9662    2.8335    2.4154 C   0  0  0  0  0  4           0  0  0
   -2.7330   -0.0074    0.0762 C   0  0  0  0  0  4           0  0  0
   -3.7924    0.6271    2.9042 C   0  0  0  0  0  4           0  0  0
    4.1092   -0.0390   -3.2436 C   0  0  0  0  0  4           0  0  0
   -4.3774    0.4624    4.1737 C   0  0  0  0  0  4           0  0  0
   -2.5612   -0.9740    4.8490 C   0  0  0  0  0  4           0  0  0
   -6.7697    4.3957    2.7908 C   0  0  0  0  0  4           0  0  0
   -4.4962    5.0037    3.3654 C   0  0  0  0  0  4           0  0  0
    1.9657   -0.6116   -2.2693 C   0  0  0  0  0  4           0  0  0
    3.5865    0.5910   -0.9608 C   0  0  0  0  0  4           0  0  0
   -1.9925   -0.8357    3.5814 C   0  0  0  0  0  4           0  0  0
    2.8491   -0.6333   -3.3528 C   0  0  0  0  0  4           0  0  0
    4.4759    0.5735   -2.0415 C   0  0  0  0  0  4           0  0  0
   -5.8547    5.3213    3.2975 C   0  0  0  0  0  4           0  0  0
    5.0066   -0.0866   -4.4103 C   0  0  0  0  0  4           0  0  0
   -4.4987    1.5357    1.9379 C   0  0  0  0  0  4           0  0  0
   -4.2282    0.0148    0.1204 C   0  0  0  0  0  4           0  0  0
  1 10  1  0     0  0
  2 11  1  0     0  0
  3 12  1  0     0  0
  4 32  2  0     0  0
  5 32  1  0     0  0
  6 13  2  0     0  0
  6 14  1  0     0  0
  7 13  1  0     0  0
  7 15  2  0     0  0
  8 13  1  0     0  0
  8 16  1  0     0  0
  9 33  2  0     0  0
  9 34  1  0     0  0
 10 22  2  0     0  0
 10 23  1  0     0  0
 11 18  1  0     0  0
 11 24  2  0     0  0
 12 18  2  0     0  0
 12 25  1  0     0  0
 14 17  1  0     0  0
 14 19  2  0     0  0
 15 19  1  0     0  0
 16 26  2  0     0  0
 16 27  1  0     0  0
 17 20  2  0     0  0
 17 28  1  0     0  0
 18 33  1  0     0  0
 19 34  1  0     0  0
 20 22  1  0     0  0
 20 33  1  0     0  0
 21 29  2  0     0  0
 21 30  1  0     0  0
 21 32  1  0     0  0
 23 28  2  0     0  0
 24 31  1  0     0  0
 25 31  2  0     0  0
 26 29  1  0     0  0
 27 30  2  0     0  0
M  END
> <standard_type>
pIC50

> <# Confs.>
25

> <canonical_smiles>
FC1=C(C2=NCC(C=NC(NC3=CC=C(C(O)=O)C=C3)=N4)=C4C5=C2C=C(Cl)C=C5)C(F)=CC=C1

> <standard_relation>
=

> <Publication_ID>
nan

> <predicted_activity_value>
6.823908740944319

> <actual_activity_value>
6.764471553092451

> <Compound>
37

> <standard_units>
nM

> hash
16786373744617436441

$$$$
37_
XXILIB    08252103423D 0   0.00000     0.00000

 34 38  0     1  0            999 V2000
   -4.4974    0.4979    6.6790 Cl  0  0  0  0  0  1           0  0  0
   -7.1678   -2.3551    1.8325 F   0  0  0  0  0  1           0  0  0
   -2.7021   -3.4446    3.0084 F   0  0  0  0  0  1           0  0  0
    5.0110    0.9862   -5.2384 O   0  0  0  0  0  2           0  0  0
    5.8252   -0.9843   -4.4312 O   0  0  0  0  0  2           0  0  0
   -0.6187   -0.0000    1.2055 N   0  0  0  0  0  3           0  0  0
   -0.6724    0.0036   -1.1741 N   0  0  0  0  0  3           0  0  0
    1.4052    0.0000    0.0000 N   0  0  0  0  0  3           0  0  0
   -4.7056   -1.2854    0.6890 N   0  0  0  0  0  3           0  0  0
   -3.7699    0.3174    5.1289 C   0  0  0  0  0  4           0  0  0
   -6.2712   -3.2130    2.3405 C   0  0  0  0  0  4           0  0  0
   -4.0018   -3.7666    2.9383 C   0  0  0  0  0  4           0  0  0
   -0.0000    0.0000    0.0000 C   0  0  0  0  0  4           0  0  0
   -1.9753    0.0005    1.2359 C   0  0  0  0  0  4           0  0  0
   -2.0193    0.0033   -1.1076 C   0  0  0  0  0  4           0  0  0
    2.3183    0.0000   -1.0570 C   0  0  0  0  0  4           0  0  0
   -2.5956    0.0429    2.5728 C   0  0  0  0  0  4           0  0  0
   -4.9233   -2.8686    2.4054 C   0  0  0  0  0  4           0  0  0
   -2.7329    0.0034    0.0742 C   0  0  0  0  0  4           0  0  0
   -3.7874   -0.6448    2.8991 C   0  0  0  0  0  4           0  0  0
    4.1117    0.0448   -3.2414 C   0  0  0  0  0  4           0  0  0
   -4.3775   -0.4860    4.1667 C   0  0  0  0  0  4           0  0  0
   -2.5808    0.9747    4.8428 C   0  0  0  0  0  4           0  0  0
   -6.7020   -4.4531    2.8045 C   0  0  0  0  0  4           0  0  0
   -4.4219   -5.0095    3.4047 C   0  0  0  0  0  4           0  0  0
    1.9657    0.6116   -2.2693 C   0  0  0  0  0  4           0  0  0
    3.5869   -0.5901   -0.9605 C   0  0  0  0  0  4           0  0  0
   -2.0061    0.8398    3.5775 C   0  0  0  0  0  4           0  0  0
    2.8500    0.6353   -3.3521 C   0  0  0  0  0  4           0  0  0
    4.4775   -0.5699   -2.0401 C   0  0  0  0  0  4           0  0  0
   -5.7748   -5.3508    3.3384 C   0  0  0  0  0  4           0  0  0
    5.0096    0.0933   -4.4077 C   0  0  0  0  0  4           0  0  0
   -4.4797   -1.5612    1.9312 C   0  0  0  0  0  4           0  0  0
   -4.2282   -0.0325    0.1172 C   0  0  0  0  0  4           0  0  0
  1 10  1  0     0  0
  2 11  1  0     0  0
  3 12  1  0     0  0
  4 32  2  0     0  0
  5 32  1  0     0  0
  6 13  2  0     0  0
  6 14  1  0     0  0
  7 13  1  0     0  0
  7 15  2  0     0  0
  8 13  1  0     0  0
  8 16  1  0     0  0
  9 33  2  0     0  0
  9 34  1  0     0  0
 10 22  2  0     0  0
 10 23  1  0     0  0
 11 18  1  0     0  0
 11 24  2  0     0  0
 12 18  2  0     0  0
 12 25  1  0     0  0
 14 17  1  0     0  0
 14 19  2  0     0  0
 15 19  1  0     0  0
 16 26  2  0     0  0
 16 27  1  0     0  0
 17 20  2  0     0  0
 17 28  1  0     0  0
 18 33  1  0     0  0
 19 34  1  0     0  0
 20 22  1  0     0  0
 20 33  1  0     0  0
 21 29  2  0     0  0
 21 30  1  0     0  0
 21 32  1  0     0  0
 23 28  2  0     0  0
 24 31  1  0     0  0
 25 31  2  0     0  0
 26 29  1  0     0  0
 27 30  2  0     0  0
M  END
> <standard_type>
pIC50

> <# Confs.>
25

> <canonical_smiles>
FC1=C(C2=NCC(C=NC(NC3=CC=C(C(O)=O)C=C3)=N4)=C4C5=C2C=C(Cl)C=C5)C(F)=CC=C1

> <standard_relation>
=

> <Publication_ID>
nan

> <predicted_activity_value>
6.823908740944319

> <actual_activity_value>
6.764471553092451

> <Compound>
37

> <standard_units>
nM

> hash
16786373744617436441

$$$$
37_
XXILIB    08252103423D 0   0.00000     0.00000

 34 38  0     1  0            999 V2000
   -4.4763   -0.5147    6.6902 Cl  0  0  0  0  0  1           0  0  0
   -7.2040    2.2717    1.8616 F   0  0  0  0  0  1           0  0  0
   -2.7511    3.4627    2.9865 F   0  0  0  0  0  1           0  0  0
    6.3667   -2.4720   -3.2693 O   0  0  0  0  0  2           0  0  0
    4.8201   -2.1055   -4.9037 O   0  0  0  0  0  2           0  0  0
   -0.6184    0.0000    1.2057 N   0  0  0  0  0  3           0  0  0
   -0.6727   -0.0022   -1.1735 N   0  0  0  0  0  3           0  0  0
    1.4052    0.0000    0.0000 N   0  0  0  0  0  3           0  0  0
   -4.7192    1.2610    0.6947 N   0  0  0  0  0  3           0  0  0
   -3.7571   -0.3304    5.1367 C   0  0  0  0  0  4           0  0  0
   -6.3201    3.1538    2.3501 C   0  0  0  0  0  4           0  0  0
   -4.0571    3.7591    2.9215 C   0  0  0  0  0  4           0  0  0
    0.0000    0.0000    0.0000 C   0  0  0  0  0  4           0  0  0
   -1.9751   -0.0023    1.2375 C   0  0  0  0  0  4           0  0  0
   -2.0198   -0.0035   -1.1063 C   0  0  0  0  0  4           0  0  0
    2.3183   -0.5285   -0.9154 C   0  0  0  0  0  4           0  0  0
   -2.5935   -0.0475    2.5760 C   0  0  0  0  0  4           0  0  0
   -4.9662    2.8335    2.4154 C   0  0  0  0  0  4           0  0  0
   -2.7330   -0.0074    0.0762 C   0  0  0  0  0  4           0  0  0
   -3.7924    0.6271    2.9042 C   0  0  0  0  0  4           0  0  0
    4.2287   -1.5731   -2.7179 C   0  0  0  0  0  4           0  0  0
   -4.3774    0.4624    4.1737 C   0  0  0  0  0  4           0  0  0
   -2.5612   -0.9740    4.8490 C   0  0  0  0  0  4           0  0  0
   -6.7697    4.3957    2.7908 C   0  0  0  0  0  4           0  0  0
   -4.4962    5.0037    3.3654 C   0  0  0  0  0  4           0  0  0
    3.6931   -0.3886   -0.6730 C   0  0  0  0  0  4           0  0  0
    1.9189   -1.2012   -2.0794 C   0  0  0  0  0  4           0  0  0
   -1.9925   -0.8357    3.5814 C   0  0  0  0  0  4           0  0  0
    4.6408   -0.9035   -1.5626 C   0  0  0  0  0  4           0  0  0
    2.8621   -1.7196   -2.9743 C   0  0  0  0  0  4           0  0  0
   -5.8547    5.3213    3.2975 C   0  0  0  0  0  4           0  0  0
    5.2621   -2.0982   -3.6263 C   0  0  0  0  0  4           0  0  0
   -4.4987    1.5357    1.9379 C   0  0  0  0  0  4           0  0  0
   -4.2282    0.0148    0.1204 C   0  0  0  0  0  4           0  0  0
  1 10  1  0     0  0
  2 11  1  0     0  0
  3 12  1  0     0  0
  4 32  2  0     0  0
  5 32  1  0     0  0
  6 13  2  0     0  0
  6 14  1  0     0  0
  7 13  1  0     0  0
  7 15  2  0     0  0
  8 13  1  0     0  0
  8 16  1  0     0  0
  9 33  2  0     0  0
  9 34  1  0     0  0
 10 22  2  0     0  0
 10 23  1  0     0  0
 11 18  1  0     0  0
 11 24  2  0     0  0
 12 18  2  0     0  0
 12 25  1  0     0  0
 14 17  1  0     0  0
 14 19  2  0     0  0
 15 19  1  0     0  0
 16 26  2  0     0  0
 16 27  1  0     0  0
 17 20  2  0     0  0
 17 28  1  0     0  0
 18 33  1  0     0  0
 19 34  1  0     0  0
 20 22  1  0     0  0
 20 33  1  0     0  0
 21 29  2  0     0  0
 21 30  1  0     0  0
 21 32  1  0     0  0
 23 28  2  0     0  0
 24 31  1  0     0  0
 25 31  2  0     0  0
 26 29  1  0     0  0
 27 30  2  0     0  0
M  END
> <standard_type>
pIC50

> <# Confs.>
25

> <canonical_smiles>
FC1=C(C2=NCC(C=NC(NC3=CC=C(C(O)=O)C=C3)=N4)=C4C5=C2C=C(Cl)C=C5)C(F)=CC=C1

> <standard_relation>
=

> <Publication_ID>
nan

> <predicted_activity_value>
6.823908740944319

> <actual_activity_value>
6.764471553092451

> <Compound>
37

> <standard_units>
nM

> hash
16786373744617436441

$$$$
37_
XXILIB    08252103423D 0   0.00000     0.00000

 34 38  0     1  0            999 V2000
   -4.4974    0.4979    6.6790 Cl  0  0  0  0  0  1           0  0  0
   -7.1678   -2.3551    1.8325 F   0  0  0  0  0  1           0  0  0
   -2.7021   -3.4446    3.0084 F   0  0  0  0  0  1           0  0  0
    6.3658    2.4679   -3.2733 O   0  0  0  0  0  2           0  0  0
    4.8191    2.0999   -4.9072 O   0  0  0  0  0  2           0  0  0
   -0.6187   -0.0000    1.2055 N   0  0  0  0  0  3           0  0  0
   -0.6724    0.0036   -1.1741 N   0  0  0  0  0  3           0  0  0
    1.4052    0.0000    0.0000 N   0  0  0  0  0  3           0  0  0
   -4.7056   -1.2854    0.6890 N   0  0  0  0  0  3           0  0  0
   -3.7699    0.3174    5.1289 C   0  0  0  0  0  4           0  0  0
   -6.2712   -3.2130    2.3405 C   0  0  0  0  0  4           0  0  0
   -4.0018   -3.7666    2.9383 C   0  0  0  0  0  4           0  0  0
   -0.0000    0.0000    0.0000 C   0  0  0  0  0  4           0  0  0
   -1.9753    0.0005    1.2359 C   0  0  0  0  0  4           0  0  0
   -2.0193    0.0033   -1.1076 C   0  0  0  0  0  4           0  0  0
    2.3183    0.5285   -0.9154 C   0  0  0  0  0  4           0  0  0
   -2.5956    0.0429    2.5728 C   0  0  0  0  0  4           0  0  0
   -4.9233   -2.8686    2.4054 C   0  0  0  0  0  4           0  0  0
   -2.7329    0.0034    0.0742 C   0  0  0  0  0  4           0  0  0
   -3.7874   -0.6448    2.8991 C   0  0  0  0  0  4           0  0  0
    4.2287    1.5673   -2.7213 C   0  0  0  0  0  4           0  0  0
   -4.3775   -0.4860    4.1667 C   0  0  0  0  0  4           0  0  0
   -2.5808    0.9747    4.8428 C   0  0  0  0  0  4           0  0  0
   -6.7020   -4.4531    2.8045 C   0  0  0  0  0  4           0  0  0
   -4.4219   -5.0095    3.4047 C   0  0  0  0  0  4           0  0  0
    3.6931    0.3886   -0.6730 C   0  0  0  0  0  4           0  0  0
    1.9189    1.2002   -2.0799 C   0  0  0  0  0  4           0  0  0
   -2.0061    0.8398    3.5775 C   0  0  0  0  0  4           0  0  0
    4.6408    0.9015   -1.5638 C   0  0  0  0  0  4           0  0  0
    2.8621    1.7160   -2.9764 C   0  0  0  0  0  4           0  0  0
   -5.7748   -5.3508    3.3384 C   0  0  0  0  0  4           0  0  0
    5.2621    2.0914   -3.6302 C   0  0  0  0  0  4           0  0  0
   -4.4797   -1.5612    1.9312 C   0  0  0  0  0  4           0  0  0
   -4.2282   -0.0325    0.1172 C   0  0  0  0  0  4           0  0  0
  1 10  1  0     0  0
  2 11  1  0     0  0
  3 12  1  0     0  0
  4 32  2  0     0  0
  5 32  1  0     0  0
  6 13  2  0     0  0
  6 14  1  0     0  0
  7 13  1  0     0  0
  7 15  2  0     0  0
  8 13  1  0     0  0
  8 16  1  0     0  0
  9 33  2  0     0  0
  9 34  1  0     0  0
 10 22  2  0     0  0
 10 23  1  0     0  0
 11 18  1  0     0  0
 11 24  2  0     0  0
 12 18  2  0     0  0
 12 25  1  0     0  0
 14 17  1  0     0  0
 14 19  2  0     0  0
 15 19  1  0     0  0
 16 26  2  0     0  0
 16 27  1  0     0  0
 17 20  2  0     0  0
 17 28  1  0     0  0
 18 33  1  0     0  0
 19 34  1  0     0  0
 20 22  1  0     0  0
 20 33  1  0     0  0
 21 29  2  0     0  0
 21 30  1  0     0  0
 21 32  1  0     0  0
 23 28  2  0     0  0
 24 31  1  0     0  0
 25 31  2  0     0  0
 26 29  1  0     0  0
 27 30  2  0     0  0
M  END
> <standard_type>
pIC50

> <# Confs.>
25

> <canonical_smiles>
FC1=C(C2=NCC(C=NC(NC3=CC=C(C(O)=O)C=C3)=N4)=C4C5=C2C=C(Cl)C=C5)C(F)=CC=C1

> <standard_relation>
=

> <Publication_ID>
nan

> <predicted_activity_value>
6.823908740944319

> <actual_activity_value>
6.764471553092451

> <Compound>
37

> <standard_units>
nM

> hash
16786373744617436441

$$$$
37_
XXILIB    08252103423D 0   0.00000     0.00000

 34 38  0     1  0            999 V2000
   -4.4974    0.4979    6.6790 Cl  0  0  0  0  0  1           0  0  0
   -7.1678   -2.3551    1.8325 F   0  0  0  0  0  1           0  0  0
   -2.7021   -3.4446    3.0084 F   0  0  0  0  0  1           0  0  0
    6.4624    1.9889    3.4397 O   0  0  0  0  0  2           0  0  0
    4.6990    2.7120    4.6908 O   0  0  0  0  0  2           0  0  0
   -0.6187   -0.0000    1.2055 N   0  0  0  0  0  3           0  0  0
   -0.6724    0.0036   -1.1741 N   0  0  0  0  0  3           0  0  0
    1.4052    0.0000    0.0000 N   0  0  0  0  0  3           0  0  0
   -4.7056   -1.2854    0.6890 N   0  0  0  0  0  3           0  0  0
   -3.7699    0.3174    5.1289 C   0  0  0  0  0  4           0  0  0
   -6.2712   -3.2130    2.3405 C   0  0  0  0  0  4           0  0  0
   -4.0018   -3.7666    2.9383 C   0  0  0  0  0  4           0  0  0
   -0.0000    0.0000    0.0000 C   0  0  0  0  0  4           0  0  0
   -1.9753    0.0005    1.2359 C   0  0  0  0  0  4           0  0  0
   -2.0193    0.0033   -1.1076 C   0  0  0  0  0  4           0  0  0
    2.3183    0.5285    0.9154 C   0  0  0  0  0  4           0  0  0
   -2.5956    0.0429    2.5728 C   0  0  0  0  0  4           0  0  0
   -4.9233   -2.8686    2.4054 C   0  0  0  0  0  4           0  0  0
   -2.7329    0.0034    0.0742 C   0  0  0  0  0  4           0  0  0
   -3.7874   -0.6448    2.8991 C   0  0  0  0  0  4           0  0  0
    4.2287    1.5731    2.7179 C   0  0  0  0  0  4           0  0  0
   -4.3775   -0.4860    4.1667 C   0  0  0  0  0  4           0  0  0
   -2.5808    0.9747    4.8428 C   0  0  0  0  0  4           0  0  0
   -6.7020   -4.4531    2.8045 C   0  0  0  0  0  4           0  0  0
   -4.4219   -5.0095    3.4047 C   0  0  0  0  0  4           0  0  0
    3.6931    0.3886    0.6730 C   0  0  0  0  0  4           0  0  0
    1.9189    1.2012    2.0794 C   0  0  0  0  0  4           0  0  0
   -2.0061    0.8398    3.5775 C   0  0  0  0  0  4           0  0  0
    4.6408    0.9035    1.5626 C   0  0  0  0  0  4           0  0  0
    2.8621    1.7196    2.9743 C   0  0  0  0  0  4           0  0  0
   -5.7748   -5.3508    3.3384 C   0  0  0  0  0  4           0  0  0
    5.2621    2.0982    3.6263 C   0  0  0  0  0  4           0  0  0
   -4.4797   -1.5612    1.9312 C   0  0  0  0  0  4           0  0  0
   -4.2282   -0.0325    0.1172 C   0  0  0  0  0  4           0  0  0
  1 10  1  0     0  0
  2 11  1  0     0  0
  3 12  1  0     0  0
  4 32  2  0     0  0
  5 32  1  0     0  0
  6 13  2  0     0  0
  6 14  1  0     0  0
  7 13  1  0     0  0
  7 15  2  0     0  0
  8 13  1  0     0  0
  8 16  1  0     0  0
  9 33  2  0     0  0
  9 34  1  0     0  0
 10 22  2  0     0  0
 10 23  1  0     0  0
 11 18  1  0     0  0
 11 24  2  0     0  0
 12 18  2  0     0  0
 12 25  1  0     0  0
 14 17  1  0     0  0
 14 19  2  0     0  0
 15 19  1  0     0  0
 16 26  2  0     0  0
 16 27  1  0     0  0
 17 20  2  0     0  0
 17 28  1  0     0  0
 18 33  1  0     0  0
 19 34  1  0     0  0
 20 22  1  0     0  0
 20 33  1  0     0  0
 21 29  2  0     0  0
 21 30  1  0     0  0
 21 32  1  0     0  0
 23 28  2  0     0  0
 24 31  1  0     0  0
 25 31  2  0     0  0
 26 29  1  0     0  0
 27 30  2  0     0  0
M  END
> <standard_type>
pIC50

> <# Confs.>
25

> <canonical_smiles>
FC1=C(C2=NCC(C=NC(NC3=CC=C(C(O)=O)C=C3)=N4)=C4C5=C2C=C(Cl)C=C5)C(F)=CC=C1

> <standard_relation>
=

> <Publication_ID>
nan

> <predicted_activity_value>
6.823908740944319

> <actual_activity_value>
6.764471553092451

> <Compound>
37

> <standard_units>
nM

> hash
16786373744617436441

$$$$
37_
XXILIB    08252103423D 0   0.00000     0.00000

 34 38  0     1  0            999 V2000
   -4.4763   -0.5147    6.6902 Cl  0  0  0  0  0  1           0  0  0
   -7.2040    2.2717    1.8616 F   0  0  0  0  0  1           0  0  0
   -2.7511    3.4627    2.9865 F   0  0  0  0  0  1           0  0  0
    6.4624   -1.9844    3.4423 O   0  0  0  0  0  2           0  0  0
    4.6990   -2.7064    4.6941 O   0  0  0  0  0  2           0  0  0
   -0.6184    0.0000    1.2057 N   0  0  0  0  0  3           0  0  0
   -0.6727   -0.0022   -1.1735 N   0  0  0  0  0  3           0  0  0
    1.4052    0.0000    0.0000 N   0  0  0  0  0  3           0  0  0
   -4.7192    1.2610    0.6947 N   0  0  0  0  0  3           0  0  0
   -3.7571   -0.3304    5.1367 C   0  0  0  0  0  4           0  0  0
   -6.3201    3.1538    2.3501 C   0  0  0  0  0  4           0  0  0
   -4.0571    3.7591    2.9215 C   0  0  0  0  0  4           0  0  0
    0.0000    0.0000    0.0000 C   0  0  0  0  0  4           0  0  0
   -1.9751   -0.0023    1.2375 C   0  0  0  0  0  4           0  0  0
   -2.0198   -0.0035   -1.1063 C   0  0  0  0  0  4           0  0  0
    2.3183   -0.5285    0.9154 C   0  0  0  0  0  4           0  0  0
   -2.5935   -0.0475    2.5760 C   0  0  0  0  0  4           0  0  0
   -4.9662    2.8335    2.4154 C   0  0  0  0  0  4           0  0  0
   -2.7330   -0.0074    0.0762 C   0  0  0  0  0  4           0  0  0
   -3.7924    0.6271    2.9042 C   0  0  0  0  0  4           0  0  0
    4.2287   -1.5673    2.7213 C   0  0  0  0  0  4           0  0  0
   -4.3774    0.4624    4.1737 C   0  0  0  0  0  4           0  0  0
   -2.5612   -0.9740    4.8490 C   0  0  0  0  0  4           0  0  0
   -6.7697    4.3957    2.7908 C   0  0  0  0  0  4           0  0  0
   -4.4962    5.0037    3.3654 C   0  0  0  0  0  4           0  0  0
    3.6931   -0.3886    0.6730 C   0  0  0  0  0  4           0  0  0
    1.9189   -1.2002    2.0799 C   0  0  0  0  0  4           0  0  0
   -1.9925   -0.8357    3.5814 C   0  0  0  0  0  4           0  0  0
    4.6408   -0.9015    1.5638 C   0  0  0  0  0  4           0  0  0
    2.8621   -1.7160    2.9764 C   0  0  0  0  0  4           0  0  0
   -5.8547    5.3213    3.2975 C   0  0  0  0  0  4           0  0  0
    5.2621   -2.0914    3.6302 C   0  0  0  0  0  4           0  0  0
   -4.4987    1.5357    1.9379 C   0  0  0  0  0  4           0  0  0
   -4.2282    0.0148    0.1204 C   0  0  0  0  0  4           0  0  0
  1 10  1  0     0  0
  2 11  1  0     0  0
  3 12  1  0     0  0
  4 32  2  0     0  0
  5 32  1  0     0  0
  6 13  2  0     0  0
  6 14  1  0     0  0
  7 13  1  0     0  0
  7 15  2  0     0  0
  8 13  1  0     0  0
  8 16  1  0     0  0
  9 33  2  0     0  0
  9 34  1  0     0  0
 10 22  2  0     0  0
 10 23  1  0     0  0
 11 18  1  0     0  0
 11 24  2  0     0  0
 12 18  2  0     0  0
 12 25  1  0     0  0
 14 17  1  0     0  0
 14 19  2  0     0  0
 15 19  1  0     0  0
 16 26  2  0     0  0
 16 27  1  0     0  0
 17 20  2  0     0  0
 17 28  1  0     0  0
 18 33  1  0     0  0
 19 34  1  0     0  0
 20 22  1  0     0  0
 20 33  1  0     0  0
 21 29  2  0     0  0
 21 30  1  0     0  0
 21 32  1  0     0  0
 23 28  2  0     0  0
 24 31  1  0     0  0
 25 31  2  0     0  0
 26 29  1  0     0  0
 27 30  2  0     0  0
M  END
> <standard_type>
pIC50

> <# Confs.>
25

> <canonical_smiles>
FC1=C(C2=NCC(C=NC(NC3=CC=C(C(O)=O)C=C3)=N4)=C4C5=C2C=C(Cl)C=C5)C(F)=CC=C1

> <standard_relation>
=

> <Publication_ID>
nan

> <predicted_activity_value>
6.823908740944319

> <actual_activity_value>
6.764471553092451

> <Compound>
37

> <standard_units>
nM

> hash
16786373744617436441

$$$$
37_
XXILIB    08252103423D 0   0.00000     0.00000

 34 38  0     1  0            999 V2000
   -4.4763   -0.5147    6.6902 Cl  0  0  0  0  0  1           0  0  0
   -7.2040    2.2717    1.8616 F   0  0  0  0  0  1           0  0  0
   -2.7511    3.4627    2.9865 F   0  0  0  0  0  1           0  0  0
    5.0110   -0.9862    5.2384 O   0  0  0  0  0  2           0  0  0
    5.8252    0.9843    4.4312 O   0  0  0  0  0  2           0  0  0
   -0.6184    0.0000    1.2057 N   0  0  0  0  0  3           0  0  0
   -0.6727   -0.0022   -1.1735 N   0  0  0  0  0  3           0  0  0
    1.4052   -0.0000    0.0000 N   0  0  0  0  0  3           0  0  0
   -4.7192    1.2610    0.6947 N   0  0  0  0  0  3           0  0  0
   -3.7571   -0.3304    5.1367 C   0  0  0  0  0  4           0  0  0
   -6.3201    3.1538    2.3501 C   0  0  0  0  0  4           0  0  0
   -4.0571    3.7591    2.9215 C   0  0  0  0  0  4           0  0  0
    0.0000    0.0000    0.0000 C   0  0  0  0  0  4           0  0  0
   -1.9751   -0.0023    1.2375 C   0  0  0  0  0  4           0  0  0
   -2.0198   -0.0035   -1.1063 C   0  0  0  0  0  4           0  0  0
    2.3183    0.0000    1.0570 C   0  0  0  0  0  4           0  0  0
   -2.5935   -0.0475    2.5760 C   0  0  0  0  0  4           0  0  0
   -4.9662    2.8335    2.4154 C   0  0  0  0  0  4           0  0  0
   -2.7330   -0.0074    0.0762 C   0  0  0  0  0  4           0  0  0
   -3.7924    0.6271    2.9042 C   0  0  0  0  0  4           0  0  0
    4.1117   -0.0448    3.2414 C   0  0  0  0  0  4           0  0  0
   -4.3774    0.4624    4.1737 C   0  0  0  0  0  4           0  0  0
   -2.5612   -0.9740    4.8490 C   0  0  0  0  0  4           0  0  0
   -6.7697    4.3957    2.7908 C   0  0  0  0  0  4           0  0  0
   -4.4962    5.0037    3.3654 C   0  0  0  0  0  4           0  0  0
    1.9657   -0.6116    2.2693 C   0  0  0  0  0  4           0  0  0
    3.5869    0.5901    0.9605 C   0  0  0  0  0  4           0  0  0
   -1.9925   -0.8357    3.5814 C   0  0  0  0  0  4           0  0  0
    2.8500   -0.6353    3.3521 C   0  0  0  0  0  4           0  0  0
    4.4775    0.5699    2.0401 C   0  0  0  0  0  4           0  0  0
   -5.8547    5.3213    3.2975 C   0  0  0  0  0  4           0  0  0
    5.0096   -0.0933    4.4077 C   0  0  0  0  0  4           0  0  0
   -4.4987    1.5357    1.9379 C   0  0  0  0  0  4           0  0  0
   -4.2282    0.0148    0.1204 C   0  0  0  0  0  4           0  0  0
  1 10  1  0     0  0
  2 11  1  0     0  0
  3 12  1  0     0  0
  4 32  2  0     0  0
  5 32  1  0     0  0
  6 13  2  0     0  0
  6 14  1  0     0  0
  7 13  1  0     0  0
  7 15  2  0     0  0
  8 13  1  0     0  0
  8 16  1  0     0  0
  9 33  2  0     0  0
  9 34  1  0     0  0
 10 22  2  0     0  0
 10 23  1  0     0  0
 11 18  1  0     0  0
 11 24  2  0     0  0
 12 18  2  0     0  0
 12 25  1  0     0  0
 14 17  1  0     0  0
 14 19  2  0     0  0
 15 19  1  0     0  0
 16 26  2  0     0  0
 16 27  1  0     0  0
 17 20  2  0     0  0
 17 28  1  0     0  0
 18 33  1  0     0  0
 19 34  1  0     0  0
 20 22  1  0     0  0
 20 33  1  0     0  0
 21 29  2  0     0  0
 21 30  1  0     0  0
 21 32  1  0     0  0
 23 28  2  0     0  0
 24 31  1  0     0  0
 25 31  2  0     0  0
 26 29  1  0     0  0
 27 30  2  0     0  0
M  END
> <standard_type>
pIC50

> <# Confs.>
25

> <canonical_smiles>
FC1=C(C2=NCC(C=NC(NC3=CC=C(C(O)=O)C=C3)=N4)=C4C5=C2C=C(Cl)C=C5)C(F)=CC=C1

> <standard_relation>
=

> <Publication_ID>
nan

> <predicted_activity_value>
6.823908740944319

> <actual_activity_value>
6.764471553092451

> <Compound>
37

> <standard_units>
nM

> hash
16786373744617436441

$$$$
37_
XXILIB    08252103423D 0   0.00000     0.00000

 34 38  0     1  0            999 V2000
   -4.4974    0.4979    6.6790 Cl  0  0  0  0  0  1           0  0  0
   -7.1678   -2.3551    1.8325 F   0  0  0  0  0  1           0  0  0
   -2.7021   -3.4446    3.0084 F   0  0  0  0  0  1           0  0  0
    5.0102    0.9806    5.2397 O   0  0  0  0  0  2           0  0  0
    5.8230   -0.9905    4.4325 O   0  0  0  0  0  2           0  0  0
   -0.6187   -0.0000    1.2055 N   0  0  0  0  0  3           0  0  0
   -0.6724    0.0036   -1.1741 N   0  0  0  0  0  3           0  0  0
    1.4052   -0.0000    0.0000 N   0  0  0  0  0  3           0  0  0
   -4.7056   -1.2854    0.6890 N   0  0  0  0  0  3           0  0  0
   -3.7699    0.3174    5.1289 C   0  0  0  0  0  4           0  0  0
   -6.2712   -3.2130    2.3405 C   0  0  0  0  0  4           0  0  0
   -4.0018   -3.7666    2.9383 C   0  0  0  0  0  4           0  0  0
   -0.0000    0.0000    0.0000 C   0  0  0  0  0  4           0  0  0
   -1.9753    0.0005    1.2359 C   0  0  0  0  0  4           0  0  0
   -2.0193    0.0033   -1.1076 C   0  0  0  0  0  4           0  0  0
    2.3183   -0.0000    1.0570 C   0  0  0  0  0  4           0  0  0
   -2.5956    0.0429    2.5728 C   0  0  0  0  0  4           0  0  0
   -4.9233   -2.8686    2.4054 C   0  0  0  0  0  4           0  0  0
   -2.7329    0.0034    0.0742 C   0  0  0  0  0  4           0  0  0
   -3.7874   -0.6448    2.8991 C   0  0  0  0  0  4           0  0  0
    4.1092    0.0390    3.2436 C   0  0  0  0  0  4           0  0  0
   -4.3775   -0.4860    4.1667 C   0  0  0  0  0  4           0  0  0
   -2.5808    0.9747    4.8428 C   0  0  0  0  0  4           0  0  0
   -6.7020   -4.4531    2.8045 C   0  0  0  0  0  4           0  0  0
   -4.4219   -5.0095    3.4047 C   0  0  0  0  0  4           0  0  0
    1.9657    0.6116    2.2693 C   0  0  0  0  0  4           0  0  0
    3.5865   -0.5910    0.9608 C   0  0  0  0  0  4           0  0  0
   -2.0061    0.8398    3.5775 C   0  0  0  0  0  4           0  0  0
    2.8491    0.6333    3.3528 C   0  0  0  0  0  4           0  0  0
    4.4759   -0.5735    2.0415 C   0  0  0  0  0  4           0  0  0
   -5.7748   -5.3508    3.3384 C   0  0  0  0  0  4           0  0  0
    5.0066    0.0866    4.4103 C   0  0  0  0  0  4           0  0  0
   -4.4797   -1.5612    1.9312 C   0  0  0  0  0  4           0  0  0
   -4.2282   -0.0325    0.1172 C   0  0  0  0  0  4           0  0  0
  1 10  1  0     0  0
  2 11  1  0     0  0
  3 12  1  0     0  0
  4 32  2  0     0  0
  5 32  1  0     0  0
  6 13  2  0     0  0
  6 14  1  0     0  0
  7 13  1  0     0  0
  7 15  2  0     0  0
  8 13  1  0     0  0
  8 16  1  0     0  0
  9 33  2  0     0  0
  9 34  1  0     0  0
 10 22  2  0     0  0
 10 23  1  0     0  0
 11 18  1  0     0  0
 11 24  2  0     0  0
 12 18  2  0     0  0
 12 25  1  0     0  0
 14 17  1  0     0  0
 14 19  2  0     0  0
 15 19  1  0     0  0
 16 26  2  0     0  0
 16 27  1  0     0  0
 17 20  2  0     0  0
 17 28  1  0     0  0
 18 33  1  0     0  0
 19 34  1  0     0  0
 20 22  1  0     0  0
 20 33  1  0     0  0
 21 29  2  0     0  0
 21 30  1  0     0  0
 21 32  1  0     0  0
 23 28  2  0     0  0
 24 31  1  0     0  0
 25 31  2  0     0  0
 26 29  1  0     0  0
 27 30  2  0     0  0
M  END
> <standard_type>
pIC50

> <# Confs.>
25

> <canonical_smiles>
FC1=C(C2=NCC(C=NC(NC3=CC=C(C(O)=O)C=C3)=N4)=C4C5=C2C=C(Cl)C=C5)C(F)=CC=C1

> <standard_relation>
=

> <Publication_ID>
nan

> <predicted_activity_value>
6.823908740944319

> <actual_activity_value>
6.764471553092451

> <Compound>
37

> <standard_units>
nM

> hash
16786373744617436441

$$$$
37_
XXILIB    08252103423D 0   0.00000     0.00000

 34 38  0     1  0            999 V2000
   -4.4763   -0.5147    6.6902 Cl  0  0  0  0  0  1           0  0  0
   -7.2040    2.2717    1.8616 F   0  0  0  0  0  1           0  0  0
   -2.7511    3.4627    2.9865 F   0  0  0  0  0  1           0  0  0
    4.7252    3.2675    4.4344 O   0  0  0  0  0  2           0  0  0
    6.1798    1.6127    3.8484 O   0  0  0  0  0  2           0  0  0
   -0.6184    0.0000    1.2057 N   0  0  0  0  0  3           0  0  0
   -0.6727   -0.0022   -1.1735 N   0  0  0  0  0  3           0  0  0
    1.4052   -0.0000    0.0000 N   0  0  0  0  0  3           0  0  0
   -4.7192    1.2610    0.6947 N   0  0  0  0  0  3           0  0  0
   -3.7571   -0.3304    5.1367 C   0  0  0  0  0  4           0  0  0
   -6.3201    3.1538    2.3501 C   0  0  0  0  0  4           0  0  0
   -4.0571    3.7591    2.9215 C   0  0  0  0  0  4           0  0  0
    0.0000    0.0000    0.0000 C   0  0  0  0  0  4           0  0  0
   -1.9751   -0.0023    1.2375 C   0  0  0  0  0  4           0  0  0
   -2.0198   -0.0035   -1.1063 C   0  0  0  0  0  4           0  0  0
    2.3183    0.5285    0.9154 C   0  0  0  0  0  4           0  0  0
   -2.5935   -0.0475    2.5760 C   0  0  0  0  0  4           0  0  0
   -4.9662    2.8335    2.4154 C   0  0  0  0  0  4           0  0  0
   -2.7330   -0.0074    0.0762 C   0  0  0  0  0  4           0  0  0
   -3.7924    0.6271    2.9042 C   0  0  0  0  0  4           0  0  0
    4.1092    1.6555    2.7896 C   0  0  0  0  0  4           0  0  0
   -4.3774    0.4624    4.1737 C   0  0  0  0  0  4           0  0  0
   -2.5612   -0.9740    4.8490 C   0  0  0  0  0  4           0  0  0
   -6.7697    4.3957    2.7908 C   0  0  0  0  0  4           0  0  0
   -4.4962    5.0037    3.3654 C   0  0  0  0  0  4           0  0  0
    1.9657    1.6644    1.6595 C   0  0  0  0  0  4           0  0  0
    3.5865   -0.0314    1.1276 C   0  0  0  0  0  4           0  0  0
   -1.9925   -0.8357    3.5814 C   0  0  0  0  0  4           0  0  0
    2.8491    2.2248    2.5870 C   0  0  0  0  0  4           0  0  0
    4.4759    0.5241    2.0548 C   0  0  0  0  0  4           0  0  0
   -5.8547    5.3213    3.2975 C   0  0  0  0  0  4           0  0  0
    5.0066    2.2801    3.7761 C   0  0  0  0  0  4           0  0  0
   -4.4987    1.5357    1.9379 C   0  0  0  0  0  4           0  0  0
   -4.2282    0.0148    0.1204 C   0  0  0  0  0  4           0  0  0
  1 10  1  0     0  0
  2 11  1  0     0  0
  3 12  1  0     0  0
  4 32  2  0     0  0
  5 32  1  0     0  0
  6 13  2  0     0  0
  6 14  1  0     0  0
  7 13  1  0     0  0
  7 15  2  0     0  0
  8 13  1  0     0  0
  8 16  1  0     0  0
  9 33  2  0     0  0
  9 34  1  0     0  0
 10 22  2  0     0  0
 10 23  1  0     0  0
 11 18  1  0     0  0
 11 24  2  0     0  0
 12 18  2  0     0  0
 12 25  1  0     0  0
 14 17  1  0     0  0
 14 19  2  0     0  0
 15 19  1  0     0  0
 16 26  2  0     0  0
 16 27  1  0     0  0
 17 20  2  0     0  0
 17 28  1  0     0  0
 18 33  1  0     0  0
 19 34  1  0     0  0
 20 22  1  0     0  0
 20 33  1  0     0  0
 21 29  2  0     0  0
 21 30  1  0     0  0
 21 32  1  0     0  0
 23 28  2  0     0  0
 24 31  1  0     0  0
 25 31  2  0     0  0
 26 29  1  0     0  0
 27 30  2  0     0  0
M  END
> <standard_type>
pIC50

> <# Confs.>
25

> <canonical_smiles>
FC1=C(C2=NCC(C=NC(NC3=CC=C(C(O)=O)C=C3)=N4)=C4C5=C2C=C(Cl)C=C5)C(F)=CC=C1

> <standard_relation>
=

> <Publication_ID>
nan

> <predicted_activity_value>
6.823908740944319

> <actual_activity_value>
6.764471553092451

> <Compound>
37

> <standard_units>
nM

> hash
16786373744617436441

$$$$
37_
XXILIB    08252103423D 0   0.00000     0.00000

 34 38  0     1  0            999 V2000
   -4.4974    0.4979    6.6790 Cl  0  0  0  0  0  1           0  0  0
   -7.1678   -2.3551    1.8325 F   0  0  0  0  0  1           0  0  0
   -2.7021   -3.4446    3.0084 F   0  0  0  0  0  1           0  0  0
    4.7272   -3.2705    4.4307 O   0  0  0  0  0  2           0  0  0
    6.1823   -1.6165    3.8438 O   0  0  0  0  0  2           0  0  0
   -0.6187   -0.0000    1.2055 N   0  0  0  0  0  3           0  0  0
   -0.6724    0.0036   -1.1741 N   0  0  0  0  0  3           0  0  0
    1.4052   -0.0000   -0.0000 N   0  0  0  0  0  3           0  0  0
   -4.7056   -1.2854    0.6890 N   0  0  0  0  0  3           0  0  0
   -3.7699    0.3174    5.1289 C   0  0  0  0  0  4           0  0  0
   -6.2712   -3.2130    2.3405 C   0  0  0  0  0  4           0  0  0
   -4.0018   -3.7666    2.9383 C   0  0  0  0  0  4           0  0  0
   -0.0000    0.0000    0.0000 C   0  0  0  0  0  4           0  0  0
   -1.9753    0.0005    1.2359 C   0  0  0  0  0  4           0  0  0
   -2.0193    0.0033   -1.1076 C   0  0  0  0  0  4           0  0  0
    2.3183   -0.5285    0.9154 C   0  0  0  0  0  4           0  0  0
   -2.5956    0.0429    2.5728 C   0  0  0  0  0  4           0  0  0
   -4.9233   -2.8686    2.4054 C   0  0  0  0  0  4           0  0  0
   -2.7329    0.0034    0.0742 C   0  0  0  0  0  4           0  0  0
   -3.7874   -0.6448    2.8991 C   0  0  0  0  0  4           0  0  0
    4.1117   -1.6595    2.7847 C   0  0  0  0  0  4           0  0  0
   -4.3775   -0.4860    4.1667 C   0  0  0  0  0  4           0  0  0
   -2.5808    0.9747    4.8428 C   0  0  0  0  0  4           0  0  0
   -6.7020   -4.4531    2.8045 C   0  0  0  0  0  4           0  0  0
   -4.4219   -5.0095    3.4047 C   0  0  0  0  0  4           0  0  0
    1.9657   -1.6644    1.6595 C   0  0  0  0  0  4           0  0  0
    3.5869    0.0308    1.1268 C   0  0  0  0  0  4           0  0  0
   -2.0061    0.8398    3.5775 C   0  0  0  0  0  4           0  0  0
    2.8500   -2.2262    2.5853 C   0  0  0  0  0  4           0  0  0
    4.4775   -0.5265    2.0517 C   0  0  0  0  0  4           0  0  0
   -5.7748   -5.3508    3.3384 C   0  0  0  0  0  4           0  0  0
    5.0096   -2.2847    3.7705 C   0  0  0  0  0  4           0  0  0
   -4.4797   -1.5612    1.9312 C   0  0  0  0  0  4           0  0  0
   -4.2282   -0.0325    0.1172 C   0  0  0  0  0  4           0  0  0
  1 10  1  0     0  0
  2 11  1  0     0  0
  3 12  1  0     0  0
  4 32  2  0     0  0
  5 32  1  0     0  0
  6 13  2  0     0  0
  6 14  1  0     0  0
  7 13  1  0     0  0
  7 15  2  0     0  0
  8 13  1  0     0  0
  8 16  1  0     0  0
  9 33  2  0     0  0
  9 34  1  0     0  0
 10 22  2  0     0  0
 10 23  1  0     0  0
 11 18  1  0     0  0
 11 24  2  0     0  0
 12 18  2  0     0  0
 12 25  1  0     0  0
 14 17  1  0     0  0
 14 19  2  0     0  0
 15 19  1  0     0  0
 16 26  2  0     0  0
 16 27  1  0     0  0
 17 20  2  0     0  0
 17 28  1  0     0  0
 18 33  1  0     0  0
 19 34  1  0     0  0
 20 22  1  0     0  0
 20 33  1  0     0  0
 21 29  2  0     0  0
 21 30  1  0     0  0
 21 32  1  0     0  0
 23 28  2  0     0  0
 24 31  1  0     0  0
 25 31  2  0     0  0
 26 29  1  0     0  0
 27 30  2  0     0  0
M  END
> <standard_type>
pIC50

> <# Confs.>
25

> <canonical_smiles>
FC1=C(C2=NCC(C=NC(NC3=CC=C(C(O)=O)C=C3)=N4)=C4C5=C2C=C(Cl)C=C5)C(F)=CC=C1

> <standard_relation>
=

> <Publication_ID>
nan

> <predicted_activity_value>
6.823908740944319

> <actual_activity_value>
6.764471553092451

> <Compound>
37

> <standard_units>
nM

> hash
16786373744617436441

$$$$
37_
XXILIB    08252103423D 0   0.00000     0.00000

 34 38  0     1  0            999 V2000
   -4.4763   -0.5147    6.6902 Cl  0  0  0  0  0  1           0  0  0
   -7.2040    2.2717    1.8616 F   0  0  0  0  0  1           0  0  0
   -2.7511    3.4627    2.9865 F   0  0  0  0  0  1           0  0  0
    4.7272   -3.2705    4.4307 O   0  0  0  0  0  2           0  0  0
    6.1823   -1.6165    3.8438 O   0  0  0  0  0  2           0  0  0
   -0.6184    0.0000    1.2057 N   0  0  0  0  0  3           0  0  0
   -0.6727   -0.0022   -1.1735 N   0  0  0  0  0  3           0  0  0
    1.4052   -0.0000   -0.0000 N   0  0  0  0  0  3           0  0  0
   -4.7192    1.2610    0.6947 N   0  0  0  0  0  3           0  0  0
   -3.7571   -0.3304    5.1367 C   0  0  0  0  0  4           0  0  0
   -6.3201    3.1538    2.3501 C   0  0  0  0  0  4           0  0  0
   -4.0571    3.7591    2.9215 C   0  0  0  0  0  4           0  0  0
    0.0000    0.0000    0.0000 C   0  0  0  0  0  4           0  0  0
   -1.9751   -0.0023    1.2375 C   0  0  0  0  0  4           0  0  0
   -2.0198   -0.0035   -1.1063 C   0  0  0  0  0  4           0  0  0
    2.3183   -0.5285    0.9154 C   0  0  0  0  0  4           0  0  0
   -2.5935   -0.0475    2.5760 C   0  0  0  0  0  4           0  0  0
   -4.9662    2.8335    2.4154 C   0  0  0  0  0  4           0  0  0
   -2.7330   -0.0074    0.0762 C   0  0  0  0  0  4           0  0  0
   -3.7924    0.6271    2.9042 C   0  0  0  0  0  4           0  0  0
    4.1117   -1.6595    2.7847 C   0  0  0  0  0  4           0  0  0
   -4.3774    0.4624    4.1737 C   0  0  0  0  0  4           0  0  0
   -2.5612   -0.9740    4.8490 C   0  0  0  0  0  4           0  0  0
   -6.7697    4.3957    2.7908 C   0  0  0  0  0  4           0  0  0
   -4.4962    5.0037    3.3654 C   0  0  0  0  0  4           0  0  0
    1.9657   -1.6644    1.6595 C   0  0  0  0  0  4           0  0  0
    3.5869    0.0308    1.1268 C   0  0  0  0  0  4           0  0  0
   -1.9925   -0.8357    3.5814 C   0  0  0  0  0  4           0  0  0
    2.8500   -2.2262    2.5853 C   0  0  0  0  0  4           0  0  0
    4.4775   -0.5265    2.0517 C   0  0  0  0  0  4           0  0  0
   -5.8547    5.3213    3.2975 C   0  0  0  0  0  4           0  0  0
    5.0096   -2.2847    3.7705 C   0  0  0  0  0  4           0  0  0
   -4.4987    1.5357    1.9379 C   0  0  0  0  0  4           0  0  0
   -4.2282    0.0148    0.1204 C   0  0  0  0  0  4           0  0  0
  1 10  1  0     0  0
  2 11  1  0     0  0
  3 12  1  0     0  0
  4 32  2  0     0  0
  5 32  1  0     0  0
  6 13  2  0     0  0
  6 14  1  0     0  0
  7 13  1  0     0  0
  7 15  2  0     0  0
  8 13  1  0     0  0
  8 16  1  0     0  0
  9 33  2  0     0  0
  9 34  1  0     0  0
 10 22  2  0     0  0
 10 23  1  0     0  0
 11 18  1  0     0  0
 11 24  2  0     0  0
 12 18  2  0     0  0
 12 25  1  0     0  0
 14 17  1  0     0  0
 14 19  2  0     0  0
 15 19  1  0     0  0
 16 26  2  0     0  0
 16 27  1  0     0  0
 17 20  2  0     0  0
 17 28  1  0     0  0
 18 33  1  0     0  0
 19 34  1  0     0  0
 20 22  1  0     0  0
 20 33  1  0     0  0
 21 29  2  0     0  0
 21 30  1  0     0  0
 21 32  1  0     0  0
 23 28  2  0     0  0
 24 31  1  0     0  0
 25 31  2  0     0  0
 26 29  1  0     0  0
 27 30  2  0     0  0
M  END
> <standard_type>
pIC50

> <# Confs.>
25

> <canonical_smiles>
FC1=C(C2=NCC(C=NC(NC3=CC=C(C(O)=O)C=C3)=N4)=C4C5=C2C=C(Cl)C=C5)C(F)=CC=C1

> <standard_relation>
=

> <Publication_ID>
nan

> <predicted_activity_value>
6.823908740944319

> <actual_activity_value>
6.764471553092451

> <Compound>
37

> <standard_units>
nM

> hash
16786373744617436441

$$$$
37_
XXILIB    08252103423D 0   0.00000     0.00000

 34 38  0     1  0            999 V2000
   -4.4974    0.4979    6.6790 Cl  0  0  0  0  0  1           0  0  0
   -7.1678   -2.3551    1.8325 F   0  0  0  0  0  1           0  0  0
   -2.7021   -3.4446    3.0084 F   0  0  0  0  0  1           0  0  0
    4.7252    3.2675    4.4344 O   0  0  0  0  0  2           0  0  0
    6.1798    1.6127    3.8484 O   0  0  0  0  0  2           0  0  0
   -0.6187   -0.0000    1.2055 N   0  0  0  0  0  3           0  0  0
   -0.6724    0.0036   -1.1741 N   0  0  0  0  0  3           0  0  0
    1.4052   -0.0000    0.0000 N   0  0  0  0  0  3           0  0  0
   -4.7056   -1.2854    0.6890 N   0  0  0  0  0  3           0  0  0
   -3.7699    0.3174    5.1289 C   0  0  0  0  0  4           0  0  0
   -6.2712   -3.2130    2.3405 C   0  0  0  0  0  4           0  0  0
   -4.0018   -3.7666    2.9383 C   0  0  0  0  0  4           0  0  0
   -0.0000    0.0000    0.0000 C   0  0  0  0  0  4           0  0  0
   -1.9753    0.0005    1.2359 C   0  0  0  0  0  4           0  0  0
   -2.0193    0.0033   -1.1076 C   0  0  0  0  0  4           0  0  0
    2.3183    0.5285    0.9154 C   0  0  0  0  0  4           0  0  0
   -2.5956    0.0429    2.5728 C   0  0  0  0  0  4           0  0  0
   -4.9233   -2.8686    2.4054 C   0  0  0  0  0  4           0  0  0
   -2.7329    0.0034    0.0742 C   0  0  0  0  0  4           0  0  0
   -3.7874   -0.6448    2.8991 C   0  0  0  0  0  4           0  0  0
    4.1092    1.6555    2.7896 C   0  0  0  0  0  4           0  0  0
   -4.3775   -0.4860    4.1667 C   0  0  0  0  0  4           0  0  0
   -2.5808    0.9747    4.8428 C   0  0  0  0  0  4           0  0  0
   -6.7020   -4.4531    2.8045 C   0  0  0  0  0  4           0  0  0
   -4.4219   -5.0095    3.4047 C   0  0  0  0  0  4           0  0  0
    1.9657    1.6644    1.6595 C   0  0  0  0  0  4           0  0  0
    3.5865   -0.0314    1.1276 C   0  0  0  0  0  4           0  0  0
   -2.0061    0.8398    3.5775 C   0  0  0  0  0  4           0  0  0
    2.8491    2.2248    2.5870 C   0  0  0  0  0  4           0  0  0
    4.4759    0.5241    2.0548 C   0  0  0  0  0  4           0  0  0
   -5.7748   -5.3508    3.3384 C   0  0  0  0  0  4           0  0  0
    5.0066    2.2801    3.7761 C   0  0  0  0  0  4           0  0  0
   -4.4797   -1.5612    1.9312 C   0  0  0  0  0  4           0  0  0
   -4.2282   -0.0325    0.1172 C   0  0  0  0  0  4           0  0  0
  1 10  1  0     0  0
  2 11  1  0     0  0
  3 12  1  0     0  0
  4 32  2  0     0  0
  5 32  1  0     0  0
  6 13  2  0     0  0
  6 14  1  0     0  0
  7 13  1  0     0  0
  7 15  2  0     0  0
  8 13  1  0     0  0
  8 16  1  0     0  0
  9 33  2  0     0  0
  9 34  1  0     0  0
 10 22  2  0     0  0
 10 23  1  0     0  0
 11 18  1  0     0  0
 11 24  2  0     0  0
 12 18  2  0     0  0
 12 25  1  0     0  0
 14 17  1  0     0  0
 14 19  2  0     0  0
 15 19  1  0     0  0
 16 26  2  0     0  0
 16 27  1  0     0  0
 17 20  2  0     0  0
 17 28  1  0     0  0
 18 33  1  0     0  0
 19 34  1  0     0  0
 20 22  1  0     0  0
 20 33  1  0     0  0
 21 29  2  0     0  0
 21 30  1  0     0  0
 21 32  1  0     0  0
 23 28  2  0     0  0
 24 31  1  0     0  0
 25 31  2  0     0  0
 26 29  1  0     0  0
 27 30  2  0     0  0
M  END
> <standard_type>
pIC50

> <# Confs.>
25

> <canonical_smiles>
FC1=C(C2=NCC(C=NC(NC3=CC=C(C(O)=O)C=C3)=N4)=C4C5=C2C=C(Cl)C=C5)C(F)=CC=C1

> <standard_relation>
=

> <Publication_ID>
nan

> <predicted_activity_value>
6.823908740944319

> <actual_activity_value>
6.764471553092451

> <Compound>
37

> <standard_units>
nM

> hash
16786373744617436441

$$$$
37_
XXILIB    08252103423D 0   0.00000     0.00000

 34 38  0     1  0            999 V2000
   -4.4974    0.4979    6.6790 Cl  0  0  0  0  0  1           0  0  0
   -2.8267   -3.8251    1.8403 F   0  0  0  0  0  1           0  0  0
   -7.0442   -1.9789    2.9876 F   0  0  0  0  0  1           0  0  0
    6.4624   -1.9889   -3.4397 O   0  0  0  0  0  2           0  0  0
    4.6990   -2.7120   -4.6908 O   0  0  0  0  0  2           0  0  0
   -0.6187   -0.0000    1.2055 N   0  0  0  0  0  3           0  0  0
   -0.6724    0.0036   -1.1741 N   0  0  0  0  0  3           0  0  0
    1.4052    0.0000    0.0000 N   0  0  0  0  0  3           0  0  0
   -4.7056   -1.2854    0.6890 N   0  0  0  0  0  3           0  0  0
   -3.7699    0.3174    5.1289 C   0  0  0  0  0  4           0  0  0
   -4.0661   -3.9639    2.3328 C   0  0  0  0  0  4           0  0  0
   -6.2095   -3.0258    2.9157 C   0  0  0  0  0  4           0  0  0
   -0.0000    0.0000    0.0000 C   0  0  0  0  0  4           0  0  0
   -1.9753    0.0005    1.2359 C   0  0  0  0  0  4           0  0  0
   -2.0193    0.0033   -1.1076 C   0  0  0  0  0  4           0  0  0
    2.3183   -0.5285   -0.9154 C   0  0  0  0  0  4           0  0  0
   -2.5956    0.0429    2.5728 C   0  0  0  0  0  4           0  0  0
   -4.9233   -2.8686    2.4054 C   0  0  0  0  0  4           0  0  0
   -2.7329    0.0034    0.0742 C   0  0  0  0  0  4           0  0  0
   -3.7874   -0.6448    2.8991 C   0  0  0  0  0  4           0  0  0
    4.2287   -1.5731   -2.7179 C   0  0  0  0  0  4           0  0  0
   -4.3775   -0.4860    4.1667 C   0  0  0  0  0  4           0  0  0
   -2.5808    0.9747    4.8428 C   0  0  0  0  0  4           0  0  0
   -4.4889   -5.2164    2.7703 C   0  0  0  0  0  4           0  0  0
   -6.6421   -4.2737    3.3564 C   0  0  0  0  0  4           0  0  0
    3.6931   -0.3886   -0.6730 C   0  0  0  0  0  4           0  0  0
    1.9189   -1.2012   -2.0794 C   0  0  0  0  0  4           0  0  0
   -2.0061    0.8398    3.5775 C   0  0  0  0  0  4           0  0  0
    4.6408   -0.9035   -1.5626 C   0  0  0  0  0  4           0  0  0
    2.8621   -1.7196   -2.9743 C   0  0  0  0  0  4           0  0  0
   -5.7796   -5.3699    3.2812 C   0  0  0  0  0  4           0  0  0
    5.2621   -2.0982   -3.6263 C   0  0  0  0  0  4           0  0  0
   -4.4797   -1.5612    1.9312 C   0  0  0  0  0  4           0  0  0
   -4.2282   -0.0325    0.1172 C   0  0  0  0  0  4           0  0  0
  1 10  1  0     0  0
  2 11  1  0     0  0
  3 12  1  0     0  0
  4 32  2  0     0  0
  5 32  1  0     0  0
  6 13  2  0     0  0
  6 14  1  0     0  0
  7 13  1  0     0  0
  7 15  2  0     0  0
  8 13  1  0     0  0
  8 16  1  0     0  0
  9 33  2  0     0  0
  9 34  1  0     0  0
 10 22  2  0     0  0
 10 23  1  0     0  0
 11 18  1  0     0  0
 11 24  2  0     0  0
 12 18  2  0     0  0
 12 25  1  0     0  0
 14 17  1  0     0  0
 14 19  2  0     0  0
 15 19  1  0     0  0
 16 26  2  0     0  0
 16 27  1  0     0  0
 17 20  2  0     0  0
 17 28  1  0     0  0
 18 33  1  0     0  0
 19 34  1  0     0  0
 20 22  1  0     0  0
 20 33  1  0     0  0
 21 29  2  0     0  0
 21 30  1  0     0  0
 21 32  1  0     0  0
 23 28  2  0     0  0
 24 31  1  0     0  0
 25 31  2  0     0  0
 26 29  1  0     0  0
 27 30  2  0     0  0
M  END
> <standard_type>
pIC50

> <# Confs.>
25

> <canonical_smiles>
FC1=C(C2=NCC(C=NC(NC3=CC=C(C(O)=O)C=C3)=N4)=C4C5=C2C=C(Cl)C=C5)C(F)=CC=C1

> <standard_relation>
=

> <Publication_ID>
nan

> <predicted_activity_value>
6.823908740944319

> <actual_activity_value>
6.764471553092451

> <Compound>
37

> <standard_units>
nM

> hash
16786373744617436441

$$$$
41_
XXILIB    08252103423D 0   0.00000     0.00000

 34 38  0     1  0            999 V2000
    1.6982    0.0000   -2.2950 O   0  0  0  0  0  2           0  0  0
   -2.2044    0.0045   -5.1443 O   0  0  0  0  0  2           0  0  0
   -2.0089    0.0020    0.7462 N   0  0  0  0  0  3           0  0  0
   -0.7144    0.0000    1.1470 N   0  0  0  0  0  3           0  0  0
    7.8275    0.0715   -0.5069 N   0  0  1  0  0  3           0  0  0
    1.3894    0.0000    0.0000 N   0  0  0  0  0  3           0  0  0
   -2.3640    0.0008   -2.8257 N   0  0  2  0  0  3           0  0  0
   10.6503   -0.1273   -0.1339 N   0  0  1  0  0  3           0  0  0
    0.0000    0.0000    0.0000 C   0  0  0  0  0  4           0  0  0
   -2.1170    0.0009   -0.5939 C   0  0  0  0  0  4           0  0  0
    6.4550    0.0496   -0.6527 C   0  0  0  0  0  4           0  0  0
   -0.8585   -0.0002   -1.1099 C   0  0  0  0  0  4           0  0  0
    3.6176    0.0025   -0.9557 C   0  0  0  0  0  4           0  0  0
   -4.9113   -1.4185   -4.1526 C   0  0  0  0  0  4           0  0  0
    5.8211    0.5799   -1.7912 C   0  0  0  0  0  4           0  0  0
    5.6124   -0.5049    0.3283 C   0  0  0  0  0  4           0  0  0
    4.4286    0.5587   -1.9456 C   0  0  0  0  0  4           0  0  0
    4.2178   -0.5313    0.1855 C   0  0  0  0  0  4           0  0  0
   -6.1685   -1.6989   -3.5964 C   0  0  0  0  0  4           0  0  0
   -4.1829   -2.4705   -4.7297 C   0  0  0  0  0  4           0  0  0
   -6.6786   -2.9986   -3.6065 C   0  0  0  0  0  4           0  0  0
   -4.6941   -3.7699   -4.7391 C   0  0  0  0  0  4           0  0  0
   -5.9409   -4.0337   -4.1770 C   0  0  0  0  0  4           0  0  0
    2.1478    0.0000   -1.1510 C   0  0  0  0  0  4           0  0  0
   -2.8742    0.0055   -4.1121 C   0  0  0  0  0  4           0  0  0
   -3.1945    0.0021   -1.5778 C   0  0  0  0  0  4           0  0  0
   -0.8866   -0.0016   -2.5759 C   0  0  0  0  0  4           0  0  0
    8.3988    0.1506    0.8421 C   0  0  0  0  0  4           0  0  0
    8.6629   -0.5499   -1.5404 C   0  0  0  0  0  4           0  0  0
    9.8395    0.6630    0.7992 C   0  0  0  0  0  4           0  0  0
   10.0946   -0.0117   -1.4869 C   0  0  0  0  0  4           0  0  0
   12.0429    0.3181   -0.1089 C   0  0  0  0  0  4           0  0  0
   -4.3858   -0.0025   -4.1465 C   0  0  1  0  0  4           0  0  0
   -4.8976    0.8102   -5.3400 C   0  0  0  0  0  4           0  0  0
  1 24  2  0     0  0
  2 25  2  0     0  0
  3  4  1  0     0  0
  3 10  1  0     0  0
  4  9  2  0     0  0
  5 11  1  0     0  0
  5 28  1  0     0  0
  5 29  1  0     0  0
  6  9  1  0     0  0
  6 24  1  0     0  0
  7 25  1  0     0  0
  7 26  1  0     0  0
  7 27  1  0     0  0
  8 30  1  0     0  0
  8 31  1  0     0  0
  8 32  1  0     0  0
  9 12  1  0     0  0
 10 12  2  0     0  0
 10 26  1  0     0  0
 11 15  2  0     0  0
 11 16  1  0     0  0
 12 27  1  0     0  0
 13 17  2  0     0  0
 13 18  1  0     0  0
 13 24  1  0     0  0
 14 19  2  0     0  0
 14 20  1  0     0  0
 14 33  1  0     0  0
 15 17  1  0     0  0
 16 18  2  0     0  0
 19 21  1  0     0  0
 20 22  2  0     0  0
 21 23  2  0     0  0
 22 23  1  0     0  0
 25 33  1  0     0  0
 28 30  1  0     0  0
 29 31  1  0     0  0
 33 34  1  0     0  0
M  END
> <standard_type>
pIC50

> <# Confs.>
25

> <canonical_smiles>
CN1CCN(C2=CC=C(C(NC3=NNC4=C3CN(C([C@@H](C)C5=CC=CC=C5)=O)C4)=O)C=C2)CC1

> <standard_relation>
=

> <Publication_ID>
nan

> <predicted_activity_value>
6.214670164989233

> <actual_activity_value>
5.91721462968355

> <Compound>
41

> <standard_units>
nM

> hash
13919524722382095929

$$$$
41_
XXILIB    08252103423D 0   0.00000     0.00000

 34 38  0     1  0            999 V2000
    1.6982    0.0000   -2.2950 O   0  0  0  0  0  2           0  0  0
   -2.2044    0.0045   -5.1443 O   0  0  0  0  0  2           0  0  0
   -2.0089    0.0020    0.7462 N   0  0  0  0  0  3           0  0  0
   -0.7144    0.0000    1.1470 N   0  0  0  0  0  3           0  0  0
    7.8284   -0.0429   -0.5118 N   0  0  1  0  0  3           0  0  0
    1.3894   -0.0000   -0.0000 N   0  0  0  0  0  3           0  0  0
   -2.3640    0.0008   -2.8257 N   0  0  2  0  0  3           0  0  0
   10.6292   -0.1595    0.0253 N   0  0  1  0  0  3           0  0  0
    0.0000    0.0000    0.0000 C   0  0  0  0  0  4           0  0  0
   -2.1170    0.0009   -0.5939 C   0  0  0  0  0  4           0  0  0
    6.4557   -0.0273   -0.6567 C   0  0  0  0  0  4           0  0  0
   -0.8585   -0.0002   -1.1099 C   0  0  0  0  0  4           0  0  0
    3.6176    0.0025   -0.9557 C   0  0  0  0  0  4           0  0  0
   -4.9113   -1.4185   -4.1526 C   0  0  0  0  0  4           0  0  0
    5.8234   -0.5616   -1.7943 C   0  0  0  0  0  4           0  0  0
    5.6111    0.5228    0.3251 C   0  0  0  0  0  4           0  0  0
    4.4305   -0.5505   -1.9459 C   0  0  0  0  0  4           0  0  0
    4.2161    0.5404    0.1844 C   0  0  0  0  0  4           0  0  0
   -6.1685   -1.6989   -3.5964 C   0  0  0  0  0  4           0  0  0
   -4.1829   -2.4705   -4.7297 C   0  0  0  0  0  4           0  0  0
   -6.6786   -2.9986   -3.6065 C   0  0  0  0  0  4           0  0  0
   -4.6941   -3.7699   -4.7391 C   0  0  0  0  0  4           0  0  0
   -5.9409   -4.0337   -4.1770 C   0  0  0  0  0  4           0  0  0
    2.1478    0.0000   -1.1510 C   0  0  0  0  0  4           0  0  0
   -2.8742    0.0055   -4.1121 C   0  0  0  0  0  4           0  0  0
   -3.1945    0.0021   -1.5778 C   0  0  0  0  0  4           0  0  0
   -0.8866   -0.0016   -2.5759 C   0  0  0  0  0  4           0  0  0
    8.4749    1.0251    0.2589 C   0  0  0  0  0  4           0  0  0
    8.5369   -1.3255   -0.5823 C   0  0  0  0  0  4           0  0  0
    9.9580    1.1393   -0.0980 C   0  0  0  0  0  4           0  0  0
   10.0189   -1.1179   -0.9030 C   0  0  0  0  0  4           0  0  0
   12.0609   -0.0252   -0.2402 C   0  0  0  0  0  4           0  0  0
   -4.3858   -0.0025   -4.1465 C   0  0  1  0  0  4           0  0  0
   -4.8976    0.8102   -5.3400 C   0  0  0  0  0  4           0  0  0
  1 24  2  0     0  0
  2 25  2  0     0  0
  3  4  1  0     0  0
  3 10  1  0     0  0
  4  9  2  0     0  0
  5 11  1  0     0  0
  5 28  1  0     0  0
  5 29  1  0     0  0
  6  9  1  0     0  0
  6 24  1  0     0  0
  7 25  1  0     0  0
  7 26  1  0     0  0
  7 27  1  0     0  0
  8 30  1  0     0  0
  8 31  1  0     0  0
  8 32  1  0     0  0
  9 12  1  0     0  0
 10 12  2  0     0  0
 10 26  1  0     0  0
 11 15  2  0     0  0
 11 16  1  0     0  0
 12 27  1  0     0  0
 13 17  2  0     0  0
 13 18  1  0     0  0
 13 24  1  0     0  0
 14 19  2  0     0  0
 14 20  1  0     0  0
 14 33  1  0     0  0
 15 17  1  0     0  0
 16 18  2  0     0  0
 19 21  1  0     0  0
 20 22  2  0     0  0
 21 23  2  0     0  0
 22 23  1  0     0  0
 25 33  1  0     0  0
 28 30  1  0     0  0
 29 31  1  0     0  0
 33 34  1  0     0  0
M  END
> <standard_type>
pIC50

> <# Confs.>
25

> <canonical_smiles>
CN1CCN(C2=CC=C(C(NC3=NNC4=C3CN(C([C@@H](C)C5=CC=CC=C5)=O)C4)=O)C=C2)CC1

> <standard_relation>
=

> <Publication_ID>
nan

> <predicted_activity_value>
6.214670164989233

> <actual_activity_value>
5.91721462968355

> <Compound>
41

> <standard_units>
nM

> hash
13919524722382095929

$$$$
41_
XXILIB    08252103423D 0   0.00000     0.00000

 34 38  0     1  0            999 V2000
    1.6982    0.0000   -2.2950 O   0  0  0  0  0  2           0  0  0
   -4.0694    0.0111   -4.4046 O   0  0  0  0  0  2           0  0  0
   -2.0089    0.0020    0.7462 N   0  0  0  0  0  3           0  0  0
   -0.7144    0.0000    1.1470 N   0  0  0  0  0  3           0  0  0
    7.8275    0.0715   -0.5069 N   0  0  1  0  0  3           0  0  0
    1.3894    0.0000    0.0000 N   0  0  0  0  0  3           0  0  0
   -2.3640    0.0008   -2.8257 N   0  0  2  0  0  3           0  0  0
   10.6503   -0.1273   -0.1339 N   0  0  1  0  0  3           0  0  0
    0.0000    0.0000    0.0000 C   0  0  0  0  0  4           0  0  0
   -2.1170    0.0009   -0.5939 C   0  0  0  0  0  4           0  0  0
    6.4550    0.0496   -0.6527 C   0  0  0  0  0  4           0  0  0
   -0.8585   -0.0002   -1.1099 C   0  0  0  0  0  4           0  0  0
    3.6176    0.0025   -0.9557 C   0  0  0  0  0  4           0  0  0
   -1.4152    1.4347   -5.5291 C   0  0  0  0  0  4           0  0  0
    5.8211    0.5799   -1.7912 C   0  0  0  0  0  4           0  0  0
    5.6124   -0.5049    0.3283 C   0  0  0  0  0  4           0  0  0
    4.4286    0.5587   -1.9456 C   0  0  0  0  0  4           0  0  0
    4.2178   -0.5313    0.1855 C   0  0  0  0  0  4           0  0  0
   -0.1178    1.7147   -5.9841 C   0  0  0  0  0  4           0  0  0
   -2.3386    2.4884   -5.4434 C   0  0  0  0  0  4           0  0  0
    0.2498    3.0157   -6.3330 C   0  0  0  0  0  4           0  0  0
   -1.9696    3.7891   -5.7926 C   0  0  0  0  0  4           0  0  0
   -0.6758    4.0525   -6.2363 C   0  0  0  0  0  4           0  0  0
    2.1478    0.0000   -1.1510 C   0  0  0  0  0  4           0  0  0
   -2.8742    0.0055   -4.1121 C   0  0  0  0  0  4           0  0  0
   -3.1945    0.0021   -1.5778 C   0  0  0  0  0  4           0  0  0
   -0.8866   -0.0016   -2.5759 C   0  0  0  0  0  4           0  0  0
    8.3988    0.1506    0.8421 C   0  0  0  0  0  4           0  0  0
    8.6629   -0.5499   -1.5404 C   0  0  0  0  0  4           0  0  0
    9.8395    0.6630    0.7992 C   0  0  0  0  0  4           0  0  0
   10.0946   -0.0117   -1.4869 C   0  0  0  0  0  4           0  0  0
   12.0429    0.3181   -0.1089 C   0  0  0  0  0  4           0  0  0
   -1.7971    0.0174   -5.1732 C   0  0  1  0  0  4           0  0  0
   -2.2446   -0.7867   -6.3980 C   0  0  0  0  0  4           0  0  0
  1 24  2  0     0  0
  2 25  2  0     0  0
  3  4  1  0     0  0
  3 10  1  0     0  0
  4  9  2  0     0  0
  5 11  1  0     0  0
  5 28  1  0     0  0
  5 29  1  0     0  0
  6  9  1  0     0  0
  6 24  1  0     0  0
  7 25  1  0     0  0
  7 26  1  0     0  0
  7 27  1  0     0  0
  8 30  1  0     0  0
  8 31  1  0     0  0
  8 32  1  0     0  0
  9 12  1  0     0  0
 10 12  2  0     0  0
 10 26  1  0     0  0
 11 15  2  0     0  0
 11 16  1  0     0  0
 12 27  1  0     0  0
 13 17  2  0     0  0
 13 18  1  0     0  0
 13 24  1  0     0  0
 14 19  2  0     0  0
 14 20  1  0     0  0
 14 33  1  0     0  0
 15 17  1  0     0  0
 16 18  2  0     0  0
 19 21  1  0     0  0
 20 22  2  0     0  0
 21 23  2  0     0  0
 22 23  1  0     0  0
 25 33  1  0     0  0
 28 30  1  0     0  0
 29 31  1  0     0  0
 33 34  1  0     0  0
M  END
> <standard_type>
pIC50

> <# Confs.>
25

> <canonical_smiles>
CN1CCN(C2=CC=C(C(NC3=NNC4=C3CN(C([C@@H](C)C5=CC=CC=C5)=O)C4)=O)C=C2)CC1

> <standard_relation>
=

> <Publication_ID>
nan

> <predicted_activity_value>
6.214670164989233

> <actual_activity_value>
5.91721462968355

> <Compound>
41

> <standard_units>
nM

> hash
13919524722382095929

$$$$
41_
XXILIB    08252103423D 0   0.00000     0.00000

 34 38  0     1  0            999 V2000
    1.6982    0.0000   -2.2950 O   0  0  0  0  0  2           0  0  0
   -4.0694    0.0111   -4.4046 O   0  0  0  0  0  2           0  0  0
   -2.0089    0.0020    0.7462 N   0  0  0  0  0  3           0  0  0
   -0.7144    0.0000    1.1470 N   0  0  0  0  0  3           0  0  0
    7.8284   -0.0429   -0.5118 N   0  0  1  0  0  3           0  0  0
    1.3894   -0.0000   -0.0000 N   0  0  0  0  0  3           0  0  0
   -2.3640    0.0008   -2.8257 N   0  0  2  0  0  3           0  0  0
   10.6292   -0.1595    0.0253 N   0  0  1  0  0  3           0  0  0
    0.0000    0.0000    0.0000 C   0  0  0  0  0  4           0  0  0
   -2.1170    0.0009   -0.5939 C   0  0  0  0  0  4           0  0  0
    6.4557   -0.0273   -0.6567 C   0  0  0  0  0  4           0  0  0
   -0.8585   -0.0002   -1.1099 C   0  0  0  0  0  4           0  0  0
    3.6176    0.0025   -0.9557 C   0  0  0  0  0  4           0  0  0
   -1.4152    1.4347   -5.5291 C   0  0  0  0  0  4           0  0  0
    5.8234   -0.5616   -1.7943 C   0  0  0  0  0  4           0  0  0
    5.6111    0.5228    0.3251 C   0  0  0  0  0  4           0  0  0
    4.4305   -0.5505   -1.9459 C   0  0  0  0  0  4           0  0  0
    4.2161    0.5404    0.1844 C   0  0  0  0  0  4           0  0  0
   -0.1178    1.7147   -5.9841 C   0  0  0  0  0  4           0  0  0
   -2.3386    2.4884   -5.4434 C   0  0  0  0  0  4           0  0  0
    0.2498    3.0157   -6.3330 C   0  0  0  0  0  4           0  0  0
   -1.9696    3.7891   -5.7926 C   0  0  0  0  0  4           0  0  0
   -0.6758    4.0525   -6.2363 C   0  0  0  0  0  4           0  0  0
    2.1478    0.0000   -1.1510 C   0  0  0  0  0  4           0  0  0
   -2.8742    0.0055   -4.1121 C   0  0  0  0  0  4           0  0  0
   -3.1945    0.0021   -1.5778 C   0  0  0  0  0  4           0  0  0
   -0.8866   -0.0016   -2.5759 C   0  0  0  0  0  4           0  0  0
    8.4749    1.0251    0.2589 C   0  0  0  0  0  4           0  0  0
    8.5369   -1.3255   -0.5823 C   0  0  0  0  0  4           0  0  0
    9.9580    1.1393   -0.0980 C   0  0  0  0  0  4           0  0  0
   10.0189   -1.1179   -0.9030 C   0  0  0  0  0  4           0  0  0
   12.0609   -0.0252   -0.2402 C   0  0  0  0  0  4           0  0  0
   -1.7971    0.0174   -5.1732 C   0  0  1  0  0  4           0  0  0
   -2.2446   -0.7867   -6.3980 C   0  0  0  0  0  4           0  0  0
  1 24  2  0     0  0
  2 25  2  0     0  0
  3  4  1  0     0  0
  3 10  1  0     0  0
  4  9  2  0     0  0
  5 11  1  0     0  0
  5 28  1  0     0  0
  5 29  1  0     0  0
  6  9  1  0     0  0
  6 24  1  0     0  0
  7 25  1  0     0  0
  7 26  1  0     0  0
  7 27  1  0     0  0
  8 30  1  0     0  0
  8 31  1  0     0  0
  8 32  1  0     0  0
  9 12  1  0     0  0
 10 12  2  0     0  0
 10 26  1  0     0  0
 11 15  2  0     0  0
 11 16  1  0     0  0
 12 27  1  0     0  0
 13 17  2  0     0  0
 13 18  1  0     0  0
 13 24  1  0     0  0
 14 19  2  0     0  0
 14 20  1  0     0  0
 14 33  1  0     0  0
 15 17  1  0     0  0
 16 18  2  0     0  0
 19 21  1  0     0  0
 20 22  2  0     0  0
 21 23  2  0     0  0
 22 23  1  0     0  0
 25 33  1  0     0  0
 28 30  1  0     0  0
 29 31  1  0     0  0
 33 34  1  0     0  0
M  END
> <standard_type>
pIC50

> <# Confs.>
25

> <canonical_smiles>
CN1CCN(C2=CC=C(C(NC3=NNC4=C3CN(C([C@@H](C)C5=CC=CC=C5)=O)C4)=O)C=C2)CC1

> <standard_relation>
=

> <Publication_ID>
nan

> <predicted_activity_value>
6.214670164989233

> <actual_activity_value>
5.91721462968355

> <Compound>
41

> <standard_units>
nM

> hash
13919524722382095929

$$$$
41_
XXILIB    08252103423D 0   0.00000     0.00000

 34 38  0     1  0            999 V2000
    1.6982    0.0000   -2.2950 O   0  0  0  0  0  2           0  0  0
   -2.2044    0.0045   -5.1443 O   0  0  0  0  0  2           0  0  0
   -2.0089    0.0020    0.7462 N   0  0  0  0  0  3           0  0  0
   -0.7144    0.0000    1.1470 N   0  0  0  0  0  3           0  0  0
    7.8284   -0.0429   -0.5118 N   0  0  1  0  0  3           0  0  0
    1.3894   -0.0000   -0.0000 N   0  0  0  0  0  3           0  0  0
   -2.3640    0.0008   -2.8257 N   0  0  2  0  0  3           0  0  0
    9.9847    1.7033    0.0868 N   0  0  1  0  0  3           0  0  0
    0.0000    0.0000    0.0000 C   0  0  0  0  0  4           0  0  0
   -2.1170    0.0009   -0.5939 C   0  0  0  0  0  4           0  0  0
    6.4557   -0.0273   -0.6567 C   0  0  0  0  0  4           0  0  0
   -0.8585   -0.0002   -1.1099 C   0  0  0  0  0  4           0  0  0
    3.6176    0.0025   -0.9557 C   0  0  0  0  0  4           0  0  0
   -4.9113   -1.4185   -4.1526 C   0  0  0  0  0  4           0  0  0
    5.8234   -0.5616   -1.7943 C   0  0  0  0  0  4           0  0  0
    5.6111    0.5228    0.3251 C   0  0  0  0  0  4           0  0  0
    4.4305   -0.5505   -1.9459 C   0  0  0  0  0  4           0  0  0
    4.2161    0.5404    0.1844 C   0  0  0  0  0  4           0  0  0
   -6.1685   -1.6989   -3.5964 C   0  0  0  0  0  4           0  0  0
   -4.1829   -2.4705   -4.7297 C   0  0  0  0  0  4           0  0  0
   -6.6786   -2.9986   -3.6065 C   0  0  0  0  0  4           0  0  0
   -4.6941   -3.7699   -4.7391 C   0  0  0  0  0  4           0  0  0
   -5.9409   -4.0337   -4.1770 C   0  0  0  0  0  4           0  0  0
    2.1478    0.0000   -1.1510 C   0  0  0  0  0  4           0  0  0
   -2.8742    0.0055   -4.1121 C   0  0  0  0  0  4           0  0  0
   -3.1945    0.0021   -1.5778 C   0  0  0  0  0  4           0  0  0
   -0.8866   -0.0016   -2.5759 C   0  0  0  0  0  4           0  0  0
    8.4672   -0.1165    0.8035 C   0  0  0  0  0  4           0  0  0
    8.7269    0.3795   -1.5878 C   0  0  0  0  0  4           0  0  0
    9.0567    1.2581    1.1410 C   0  0  0  0  0  4           0  0  0
    9.3196    1.7470   -1.2272 C   0  0  0  0  0  4           0  0  0
   10.5524    3.0089    0.4201 C   0  0  0  0  0  4           0  0  0
   -4.3858   -0.0025   -4.1465 C   0  0  1  0  0  4           0  0  0
   -4.8976    0.8102   -5.3400 C   0  0  0  0  0  4           0  0  0
  1 24  2  0     0  0
  2 25  2  0     0  0
  3  4  1  0     0  0
  3 10  1  0     0  0
  4  9  2  0     0  0
  5 11  1  0     0  0
  5 28  1  0     0  0
  5 29  1  0     0  0
  6  9  1  0     0  0
  6 24  1  0     0  0
  7 25  1  0     0  0
  7 26  1  0     0  0
  7 27  1  0     0  0
  8 30  1  0     0  0
  8 31  1  0     0  0
  8 32  1  0     0  0
  9 12  1  0     0  0
 10 12  2  0     0  0
 10 26  1  0     0  0
 11 15  2  0     0  0
 11 16  1  0     0  0
 12 27  1  0     0  0
 13 17  2  0     0  0
 13 18  1  0     0  0
 13 24  1  0     0  0
 14 19  2  0     0  0
 14 20  1  0     0  0
 14 33  1  0     0  0
 15 17  1  0     0  0
 16 18  2  0     0  0
 19 21  1  0     0  0
 20 22  2  0     0  0
 21 23  2  0     0  0
 22 23  1  0     0  0
 25 33  1  0     0  0
 28 30  1  0     0  0
 29 31  1  0     0  0
 33 34  1  0     0  0
M  END
> <standard_type>
pIC50

> <# Confs.>
25

> <canonical_smiles>
CN1CCN(C2=CC=C(C(NC3=NNC4=C3CN(C([C@@H](C)C5=CC=CC=C5)=O)C4)=O)C=C2)CC1

> <standard_relation>
=

> <Publication_ID>
nan

> <predicted_activity_value>
6.214670164989233

> <actual_activity_value>
5.91721462968355

> <Compound>
41

> <standard_units>
nM

> hash
13919524722382095929

$$$$
41_
XXILIB    08252103423D 0   0.00000     0.00000

 34 38  0     1  0            999 V2000
    1.6982    0.0000   -2.2950 O   0  0  0  0  0  2           0  0  0
   -2.2044    0.0045   -5.1443 O   0  0  0  0  0  2           0  0  0
   -2.0089    0.0020    0.7462 N   0  0  0  0  0  3           0  0  0
   -0.7144    0.0000    1.1470 N   0  0  0  0  0  3           0  0  0
    7.8275    0.0715   -0.5069 N   0  0  1  0  0  3           0  0  0
    1.3894    0.0000    0.0000 N   0  0  0  0  0  3           0  0  0
   -2.3640    0.0008   -2.8257 N   0  0  2  0  0  3           0  0  0
    9.8165    0.8492    1.3629 N   0  0  1  0  0  3           0  0  0
    0.0000    0.0000    0.0000 C   0  0  0  0  0  4           0  0  0
   -2.1170    0.0009   -0.5939 C   0  0  0  0  0  4           0  0  0
    6.4550    0.0496   -0.6527 C   0  0  0  0  0  4           0  0  0
   -0.8585   -0.0002   -1.1099 C   0  0  0  0  0  4           0  0  0
    3.6176    0.0025   -0.9557 C   0  0  0  0  0  4           0  0  0
   -4.9113   -1.4185   -4.1526 C   0  0  0  0  0  4           0  0  0
    5.8211    0.5799   -1.7912 C   0  0  0  0  0  4           0  0  0
    5.6124   -0.5049    0.3283 C   0  0  0  0  0  4           0  0  0
    4.4286    0.5587   -1.9456 C   0  0  0  0  0  4           0  0  0
    4.2178   -0.5313    0.1855 C   0  0  0  0  0  4           0  0  0
   -6.1685   -1.6989   -3.5964 C   0  0  0  0  0  4           0  0  0
   -4.1829   -2.4705   -4.7297 C   0  0  0  0  0  4           0  0  0
   -6.6786   -2.9986   -3.6065 C   0  0  0  0  0  4           0  0  0
   -4.6941   -3.7699   -4.7391 C   0  0  0  0  0  4           0  0  0
   -5.9409   -4.0337   -4.1770 C   0  0  0  0  0  4           0  0  0
    2.1478    0.0000   -1.1510 C   0  0  0  0  0  4           0  0  0
   -2.8742    0.0055   -4.1121 C   0  0  0  0  0  4           0  0  0
   -3.1945    0.0021   -1.5778 C   0  0  0  0  0  4           0  0  0
   -0.8866   -0.0016   -2.5759 C   0  0  0  0  0  4           0  0  0
    8.5422   -0.9579    0.2500 C   0  0  0  0  0  4           0  0  0
    8.6156    1.2790   -0.7611 C   0  0  0  0  0  4           0  0  0
    9.0005   -0.3574    1.5843 C   0  0  0  0  0  4           0  0  0
    9.0791    1.8572    0.5814 C   0  0  0  0  0  4           0  0  0
   10.2602    1.4102    2.6382 C   0  0  0  0  0  4           0  0  0
   -4.3858   -0.0025   -4.1465 C   0  0  1  0  0  4           0  0  0
   -4.8976    0.8102   -5.3400 C   0  0  0  0  0  4           0  0  0
  1 24  2  0     0  0
  2 25  2  0     0  0
  3  4  1  0     0  0
  3 10  1  0     0  0
  4  9  2  0     0  0
  5 11  1  0     0  0
  5 28  1  0     0  0
  5 29  1  0     0  0
  6  9  1  0     0  0
  6 24  1  0     0  0
  7 25  1  0     0  0
  7 26  1  0     0  0
  7 27  1  0     0  0
  8 30  1  0     0  0
  8 31  1  0     0  0
  8 32  1  0     0  0
  9 12  1  0     0  0
 10 12  2  0     0  0
 10 26  1  0     0  0
 11 15  2  0     0  0
 11 16  1  0     0  0
 12 27  1  0     0  0
 13 17  2  0     0  0
 13 18  1  0     0  0
 13 24  1  0     0  0
 14 19  2  0     0  0
 14 20  1  0     0  0
 14 33  1  0     0  0
 15 17  1  0     0  0
 16 18  2  0     0  0
 19 21  1  0     0  0
 20 22  2  0     0  0
 21 23  2  0     0  0
 22 23  1  0     0  0
 25 33  1  0     0  0
 28 30  1  0     0  0
 29 31  1  0     0  0
 33 34  1  0     0  0
M  END
> <standard_type>
pIC50

> <# Confs.>
25

> <canonical_smiles>
CN1CCN(C2=CC=C(C(NC3=NNC4=C3CN(C([C@@H](C)C5=CC=CC=C5)=O)C4)=O)C=C2)CC1

> <standard_relation>
=

> <Publication_ID>
nan

> <predicted_activity_value>
6.214670164989233

> <actual_activity_value>
5.91721462968355

> <Compound>
41

> <standard_units>
nM

> hash
13919524722382095929

$$$$
41_
XXILIB    08252103423D 0   0.00000     0.00000

 34 38  0     1  0            999 V2000
    1.6982    0.0000   -2.2950 O   0  0  0  0  0  2           0  0  0
   -2.2044    0.0045   -5.1443 O   0  0  0  0  0  2           0  0  0
   -2.0089    0.0020    0.7462 N   0  0  0  0  0  3           0  0  0
   -0.7144    0.0000    1.1470 N   0  0  0  0  0  3           0  0  0
    7.7988   -0.0526   -0.2892 N   0  0  1  0  0  3           0  0  0
    1.3894    0.0000    0.0000 N   0  0  0  0  0  3           0  0  0
   -2.3640    0.0008   -2.8257 N   0  0  2  0  0  3           0  0  0
   10.6435   -0.1613   -0.0818 N   0  0  1  0  0  3           0  0  0
    0.0000    0.0000    0.0000 C   0  0  0  0  0  4           0  0  0
   -2.1170    0.0009   -0.5939 C   0  0  0  0  0  4           0  0  0
    6.4358   -0.0352   -0.5070 C   0  0  0  0  0  4           0  0  0
   -0.8585   -0.0002   -1.1099 C   0  0  0  0  0  4           0  0  0
    3.6176    0.0025   -0.9557 C   0  0  0  0  0  4           0  0  0
   -4.9113   -1.4185   -4.1526 C   0  0  0  0  0  4           0  0  0
    5.5283   -0.5681    0.4267 C   0  0  0  0  0  4           0  0  0
    5.8768    0.5170   -1.6743 C   0  0  0  0  0  4           0  0  0
    4.1437   -0.5515    0.2120 C   0  0  0  0  0  4           0  0  0
    4.4932    0.5387   -1.9007 C   0  0  0  0  0  4           0  0  0
   -6.1685   -1.6989   -3.5964 C   0  0  0  0  0  4           0  0  0
   -4.1829   -2.4705   -4.7297 C   0  0  0  0  0  4           0  0  0
   -6.6786   -2.9986   -3.6065 C   0  0  0  0  0  4           0  0  0
   -4.6941   -3.7699   -4.7391 C   0  0  0  0  0  4           0  0  0
   -5.9409   -4.0337   -4.1770 C   0  0  0  0  0  4           0  0  0
    2.1478    0.0000   -1.1510 C   0  0  0  0  0  4           0  0  0
   -2.8742    0.0055   -4.1121 C   0  0  0  0  0  4           0  0  0
   -3.1945    0.0021   -1.5778 C   0  0  0  0  0  4           0  0  0
   -0.8866   -0.0016   -2.5759 C   0  0  0  0  0  4           0  0  0
    8.4749   -1.3427   -0.1127 C   0  0  0  0  0  4           0  0  0
    8.6152    1.0543   -0.7995 C   0  0  0  0  0  4           0  0  0
    9.8181   -1.1660    0.5978 C   0  0  0  0  0  4           0  0  0
    9.9547    1.1341   -0.0635 C   0  0  0  0  0  4           0  0  0
   11.9549   -0.0567    0.5565 C   0  0  0  0  0  4           0  0  0
   -4.3858   -0.0025   -4.1465 C   0  0  1  0  0  4           0  0  0
   -4.8976    0.8102   -5.3400 C   0  0  0  0  0  4           0  0  0
  1 24  2  0     0  0
  2 25  2  0     0  0
  3  4  1  0     0  0
  3 10  1  0     0  0
  4  9  2  0     0  0
  5 11  1  0     0  0
  5 28  1  0     0  0
  5 29  1  0     0  0
  6  9  1  0     0  0
  6 24  1  0     0  0
  7 25  1  0     0  0
  7 26  1  0     0  0
  7 27  1  0     0  0
  8 30  1  0     0  0
  8 31  1  0     0  0
  8 32  1  0     0  0
  9 12  1  0     0  0
 10 12  2  0     0  0
 10 26  1  0     0  0
 11 15  2  0     0  0
 11 16  1  0     0  0
 12 27  1  0     0  0
 13 17  2  0     0  0
 13 18  1  0     0  0
 13 24  1  0     0  0
 14 19  2  0     0  0
 14 20  1  0     0  0
 14 33  1  0     0  0
 15 17  1  0     0  0
 16 18  2  0     0  0
 19 21  1  0     0  0
 20 22  2  0     0  0
 21 23  2  0     0  0
 22 23  1  0     0  0
 25 33  1  0     0  0
 28 30  1  0     0  0
 29 31  1  0     0  0
 33 34  1  0     0  0
M  END
> <standard_type>
pIC50

> <# Confs.>
25

> <canonical_smiles>
CN1CCN(C2=CC=C(C(NC3=NNC4=C3CN(C([C@@H](C)C5=CC=CC=C5)=O)C4)=O)C=C2)CC1

> <standard_relation>
=

> <Publication_ID>
nan

> <predicted_activity_value>
6.214670164989233

> <actual_activity_value>
5.91721462968355

> <Compound>
41

> <standard_units>
nM

> hash
13919524722382095929

$$$$
41_
XXILIB    08252103423D 0   0.00000     0.00000

 34 38  0     1  0            999 V2000
    1.6982    0.0000   -2.2950 O   0  0  0  0  0  2           0  0  0
   -4.0694    0.0111   -4.4046 O   0  0  0  0  0  2           0  0  0
   -2.0089    0.0020    0.7462 N   0  0  0  0  0  3           0  0  0
   -0.7144    0.0000    1.1470 N   0  0  0  0  0  3           0  0  0
    7.8284   -0.0429   -0.5118 N   0  0  1  0  0  3           0  0  0
    1.3894   -0.0000   -0.0000 N   0  0  0  0  0  3           0  0  0
   -2.3640    0.0008   -2.8257 N   0  0  2  0  0  3           0  0  0
    9.9847    1.7033    0.0868 N   0  0  1  0  0  3           0  0  0
    0.0000    0.0000    0.0000 C   0  0  0  0  0  4           0  0  0
   -2.1170    0.0009   -0.5939 C   0  0  0  0  0  4           0  0  0
    6.4557   -0.0273   -0.6567 C   0  0  0  0  0  4           0  0  0
   -0.8585   -0.0002   -1.1099 C   0  0  0  0  0  4           0  0  0
    3.6176    0.0025   -0.9557 C   0  0  0  0  0  4           0  0  0
   -1.4152    1.4347   -5.5291 C   0  0  0  0  0  4           0  0  0
    5.8234   -0.5616   -1.7943 C   0  0  0  0  0  4           0  0  0
    5.6111    0.5228    0.3251 C   0  0  0  0  0  4           0  0  0
    4.4305   -0.5505   -1.9459 C   0  0  0  0  0  4           0  0  0
    4.2161    0.5404    0.1844 C   0  0  0  0  0  4           0  0  0
   -0.1178    1.7147   -5.9841 C   0  0  0  0  0  4           0  0  0
   -2.3386    2.4884   -5.4434 C   0  0  0  0  0  4           0  0  0
    0.2498    3.0157   -6.3330 C   0  0  0  0  0  4           0  0  0
   -1.9696    3.7891   -5.7926 C   0  0  0  0  0  4           0  0  0
   -0.6758    4.0525   -6.2363 C   0  0  0  0  0  4           0  0  0
    2.1478    0.0000   -1.1510 C   0  0  0  0  0  4           0  0  0
   -2.8742    0.0055   -4.1121 C   0  0  0  0  0  4           0  0  0
   -3.1945    0.0021   -1.5778 C   0  0  0  0  0  4           0  0  0
   -0.8866   -0.0016   -2.5759 C   0  0  0  0  0  4           0  0  0
    8.4672   -0.1165    0.8035 C   0  0  0  0  0  4           0  0  0
    8.7269    0.3795   -1.5878 C   0  0  0  0  0  4           0  0  0
    9.0567    1.2581    1.1410 C   0  0  0  0  0  4           0  0  0
    9.3196    1.7470   -1.2272 C   0  0  0  0  0  4           0  0  0
   10.5524    3.0089    0.4201 C   0  0  0  0  0  4           0  0  0
   -1.7971    0.0174   -5.1732 C   0  0  1  0  0  4           0  0  0
   -2.2446   -0.7867   -6.3980 C   0  0  0  0  0  4           0  0  0
  1 24  2  0     0  0
  2 25  2  0     0  0
  3  4  1  0     0  0
  3 10  1  0     0  0
  4  9  2  0     0  0
  5 11  1  0     0  0
  5 28  1  0     0  0
  5 29  1  0     0  0
  6  9  1  0     0  0
  6 24  1  0     0  0
  7 25  1  0     0  0
  7 26  1  0     0  0
  7 27  1  0     0  0
  8 30  1  0     0  0
  8 31  1  0     0  0
  8 32  1  0     0  0
  9 12  1  0     0  0
 10 12  2  0     0  0
 10 26  1  0     0  0
 11 15  2  0     0  0
 11 16  1  0     0  0
 12 27  1  0     0  0
 13 17  2  0     0  0
 13 18  1  0     0  0
 13 24  1  0     0  0
 14 19  2  0     0  0
 14 20  1  0     0  0
 14 33  1  0     0  0
 15 17  1  0     0  0
 16 18  2  0     0  0
 19 21  1  0     0  0
 20 22  2  0     0  0
 21 23  2  0     0  0
 22 23  1  0     0  0
 25 33  1  0     0  0
 28 30  1  0     0  0
 29 31  1  0     0  0
 33 34  1  0     0  0
M  END
> <standard_type>
pIC50

> <# Confs.>
25

> <canonical_smiles>
CN1CCN(C2=CC=C(C(NC3=NNC4=C3CN(C([C@@H](C)C5=CC=CC=C5)=O)C4)=O)C=C2)CC1

> <standard_relation>
=

> <Publication_ID>
nan

> <predicted_activity_value>
6.214670164989233

> <actual_activity_value>
5.91721462968355

> <Compound>
41

> <standard_units>
nM

> hash
13919524722382095929

$$$$
41_
XXILIB    08252103423D 0   0.00000     0.00000

 34 38  0     1  0            999 V2000
    1.6982    0.0000   -2.2950 O   0  0  0  0  0  2           0  0  0
   -4.0694    0.0111   -4.4046 O   0  0  0  0  0  2           0  0  0
   -2.0089    0.0020    0.7462 N   0  0  0  0  0  3           0  0  0
   -0.7144    0.0000    1.1470 N   0  0  0  0  0  3           0  0  0
    7.8275    0.0715   -0.5069 N   0  0  1  0  0  3           0  0  0
    1.3894    0.0000    0.0000 N   0  0  0  0  0  3           0  0  0
   -2.3640    0.0008   -2.8257 N   0  0  2  0  0  3           0  0  0
    9.8165    0.8492    1.3629 N   0  0  1  0  0  3           0  0  0
    0.0000    0.0000    0.0000 C   0  0  0  0  0  4           0  0  0
   -2.1170    0.0009   -0.5939 C   0  0  0  0  0  4           0  0  0
    6.4550    0.0496   -0.6527 C   0  0  0  0  0  4           0  0  0
   -0.8585   -0.0002   -1.1099 C   0  0  0  0  0  4           0  0  0
    3.6176    0.0025   -0.9557 C   0  0  0  0  0  4           0  0  0
   -1.4152    1.4347   -5.5291 C   0  0  0  0  0  4           0  0  0
    5.8211    0.5799   -1.7912 C   0  0  0  0  0  4           0  0  0
    5.6124   -0.5049    0.3283 C   0  0  0  0  0  4           0  0  0
    4.4286    0.5587   -1.9456 C   0  0  0  0  0  4           0  0  0
    4.2178   -0.5313    0.1855 C   0  0  0  0  0  4           0  0  0
   -0.1178    1.7147   -5.9841 C   0  0  0  0  0  4           0  0  0
   -2.3386    2.4884   -5.4434 C   0  0  0  0  0  4           0  0  0
    0.2498    3.0157   -6.3330 C   0  0  0  0  0  4           0  0  0
   -1.9696    3.7891   -5.7926 C   0  0  0  0  0  4           0  0  0
   -0.6758    4.0525   -6.2363 C   0  0  0  0  0  4           0  0  0
    2.1478    0.0000   -1.1510 C   0  0  0  0  0  4           0  0  0
   -2.8742    0.0055   -4.1121 C   0  0  0  0  0  4           0  0  0
   -3.1945    0.0021   -1.5778 C   0  0  0  0  0  4           0  0  0
   -0.8866   -0.0016   -2.5759 C   0  0  0  0  0  4           0  0  0
    8.5422   -0.9579    0.2500 C   0  0  0  0  0  4           0  0  0
    8.6156    1.2790   -0.7611 C   0  0  0  0  0  4           0  0  0
    9.0005   -0.3574    1.5843 C   0  0  0  0  0  4           0  0  0
    9.0791    1.8572    0.5814 C   0  0  0  0  0  4           0  0  0
   10.2602    1.4102    2.6382 C   0  0  0  0  0  4           0  0  0
   -1.7971    0.0174   -5.1732 C   0  0  1  0  0  4           0  0  0
   -2.2446   -0.7867   -6.3980 C   0  0  0  0  0  4           0  0  0
  1 24  2  0     0  0
  2 25  2  0     0  0
  3  4  1  0     0  0
  3 10  1  0     0  0
  4  9  2  0     0  0
  5 11  1  0     0  0
  5 28  1  0     0  0
  5 29  1  0     0  0
  6  9  1  0     0  0
  6 24  1  0     0  0
  7 25  1  0     0  0
  7 26  1  0     0  0
  7 27  1  0     0  0
  8 30  1  0     0  0
  8 31  1  0     0  0
  8 32  1  0     0  0
  9 12  1  0     0  0
 10 12  2  0     0  0
 10 26  1  0     0  0
 11 15  2  0     0  0
 11 16  1  0     0  0
 12 27  1  0     0  0
 13 17  2  0     0  0
 13 18  1  0     0  0
 13 24  1  0     0  0
 14 19  2  0     0  0
 14 20  1  0     0  0
 14 33  1  0     0  0
 15 17  1  0     0  0
 16 18  2  0     0  0
 19 21  1  0     0  0
 20 22  2  0     0  0
 21 23  2  0     0  0
 22 23  1  0     0  0
 25 33  1  0     0  0
 28 30  1  0     0  0
 29 31  1  0     0  0
 33 34  1  0     0  0
M  END
> <standard_type>
pIC50

> <# Confs.>
25

> <canonical_smiles>
CN1CCN(C2=CC=C(C(NC3=NNC4=C3CN(C([C@@H](C)C5=CC=CC=C5)=O)C4)=O)C=C2)CC1

> <standard_relation>
=

> <Publication_ID>
nan

> <predicted_activity_value>
6.214670164989233

> <actual_activity_value>
5.91721462968355

> <Compound>
41

> <standard_units>
nM

> hash
13919524722382095929

$$$$
41_
XXILIB    08252103423D 0   0.00000     0.00000

 34 38  0     1  0            999 V2000
    1.6982    0.0000   -2.2950 O   0  0  0  0  0  2           0  0  0
   -4.0694    0.0111   -4.4046 O   0  0  0  0  0  2           0  0  0
   -2.0089    0.0020    0.7462 N   0  0  0  0  0  3           0  0  0
   -0.7144    0.0000    1.1470 N   0  0  0  0  0  3           0  0  0
    7.7988   -0.0526   -0.2892 N   0  0  1  0  0  3           0  0  0
    1.3894    0.0000    0.0000 N   0  0  0  0  0  3           0  0  0
   -2.3640    0.0008   -2.8257 N   0  0  2  0  0  3           0  0  0
   10.6435   -0.1613   -0.0818 N   0  0  1  0  0  3           0  0  0
    0.0000    0.0000    0.0000 C   0  0  0  0  0  4           0  0  0
   -2.1170    0.0009   -0.5939 C   0  0  0  0  0  4           0  0  0
    6.4358   -0.0352   -0.5070 C   0  0  0  0  0  4           0  0  0
   -0.8585   -0.0002   -1.1099 C   0  0  0  0  0  4           0  0  0
    3.6176    0.0025   -0.9557 C   0  0  0  0  0  4           0  0  0
   -1.4152    1.4347   -5.5291 C   0  0  0  0  0  4           0  0  0
    5.5283   -0.5681    0.4267 C   0  0  0  0  0  4           0  0  0
    5.8768    0.5170   -1.6743 C   0  0  0  0  0  4           0  0  0
    4.1437   -0.5515    0.2120 C   0  0  0  0  0  4           0  0  0
    4.4932    0.5387   -1.9007 C   0  0  0  0  0  4           0  0  0
   -0.1178    1.7147   -5.9841 C   0  0  0  0  0  4           0  0  0
   -2.3386    2.4884   -5.4434 C   0  0  0  0  0  4           0  0  0
    0.2498    3.0157   -6.3330 C   0  0  0  0  0  4           0  0  0
   -1.9696    3.7891   -5.7926 C   0  0  0  0  0  4           0  0  0
   -0.6758    4.0525   -6.2363 C   0  0  0  0  0  4           0  0  0
    2.1478    0.0000   -1.1510 C   0  0  0  0  0  4           0  0  0
   -2.8742    0.0055   -4.1121 C   0  0  0  0  0  4           0  0  0
   -3.1945    0.0021   -1.5778 C   0  0  0  0  0  4           0  0  0
   -0.8866   -0.0016   -2.5759 C   0  0  0  0  0  4           0  0  0
    8.4749   -1.3427   -0.1127 C   0  0  0  0  0  4           0  0  0
    8.6152    1.0543   -0.7995 C   0  0  0  0  0  4           0  0  0
    9.8181   -1.1660    0.5978 C   0  0  0  0  0  4           0  0  0
    9.9547    1.1341   -0.0635 C   0  0  0  0  0  4           0  0  0
   11.9549   -0.0567    0.5565 C   0  0  0  0  0  4           0  0  0
   -1.7971    0.0174   -5.1732 C   0  0  1  0  0  4           0  0  0
   -2.2446   -0.7867   -6.3980 C   0  0  0  0  0  4           0  0  0
  1 24  2  0     0  0
  2 25  2  0     0  0
  3  4  1  0     0  0
  3 10  1  0     0  0
  4  9  2  0     0  0
  5 11  1  0     0  0
  5 28  1  0     0  0
  5 29  1  0     0  0
  6  9  1  0     0  0
  6 24  1  0     0  0
  7 25  1  0     0  0
  7 26  1  0     0  0
  7 27  1  0     0  0
  8 30  1  0     0  0
  8 31  1  0     0  0
  8 32  1  0     0  0
  9 12  1  0     0  0
 10 12  2  0     0  0
 10 26  1  0     0  0
 11 15  2  0     0  0
 11 16  1  0     0  0
 12 27  1  0     0  0
 13 17  2  0     0  0
 13 18  1  0     0  0
 13 24  1  0     0  0
 14 19  2  0     0  0
 14 20  1  0     0  0
 14 33  1  0     0  0
 15 17  1  0     0  0
 16 18  2  0     0  0
 19 21  1  0     0  0
 20 22  2  0     0  0
 21 23  2  0     0  0
 22 23  1  0     0  0
 25 33  1  0     0  0
 28 30  1  0     0  0
 29 31  1  0     0  0
 33 34  1  0     0  0
M  END
> <standard_type>
pIC50

> <# Confs.>
25

> <canonical_smiles>
CN1CCN(C2=CC=C(C(NC3=NNC4=C3CN(C([C@@H](C)C5=CC=CC=C5)=O)C4)=O)C=C2)CC1

> <standard_relation>
=

> <Publication_ID>
nan

> <predicted_activity_value>
6.214670164989233

> <actual_activity_value>
5.91721462968355

> <Compound>
41

> <standard_units>
nM

> hash
13919524722382095929

$$$$
41_
XXILIB    08252103423D 0   0.00000     0.00000

 34 38  0     1  0            999 V2000
    1.6982    0.0000   -2.2950 O   0  0  0  0  0  2           0  0  0
   -2.2044    0.0045   -5.1443 O   0  0  0  0  0  2           0  0  0
   -2.0089    0.0020    0.7462 N   0  0  0  0  0  3           0  0  0
   -0.7144    0.0000    1.1470 N   0  0  0  0  0  3           0  0  0
    7.8275    0.0715   -0.5069 N   0  0  1  0  0  3           0  0  0
    1.3894    0.0000    0.0000 N   0  0  0  0  0  3           0  0  0
   -2.3640    0.0008   -2.8257 N   0  0  2  0  0  3           0  0  0
   10.0500   -1.6934   -0.4533 N   0  0  1  0  0  3           0  0  0
    0.0000    0.0000    0.0000 C   0  0  0  0  0  4           0  0  0
   -2.1170    0.0009   -0.5939 C   0  0  0  0  0  4           0  0  0
    6.4550    0.0496   -0.6527 C   0  0  0  0  0  4           0  0  0
   -0.8585   -0.0002   -1.1099 C   0  0  0  0  0  4           0  0  0
    3.6176    0.0025   -0.9557 C   0  0  0  0  0  4           0  0  0
   -4.9113   -1.4185   -4.1526 C   0  0  0  0  0  4           0  0  0
    5.8211    0.5799   -1.7912 C   0  0  0  0  0  4           0  0  0
    5.6124   -0.5049    0.3283 C   0  0  0  0  0  4           0  0  0
    4.4286    0.5587   -1.9456 C   0  0  0  0  0  4           0  0  0
    4.2178   -0.5313    0.1855 C   0  0  0  0  0  4           0  0  0
   -6.1685   -1.6989   -3.5964 C   0  0  0  0  0  4           0  0  0
   -4.1829   -2.4705   -4.7297 C   0  0  0  0  0  4           0  0  0
   -6.6786   -2.9986   -3.6065 C   0  0  0  0  0  4           0  0  0
   -4.6941   -3.7699   -4.7391 C   0  0  0  0  0  4           0  0  0
   -5.9409   -4.0337   -4.1770 C   0  0  0  0  0  4           0  0  0
    2.1478    0.0000   -1.1510 C   0  0  0  0  0  4           0  0  0
   -2.8742    0.0055   -4.1121 C   0  0  0  0  0  4           0  0  0
   -3.1945    0.0021   -1.5778 C   0  0  0  0  0  4           0  0  0
   -0.8866   -0.0016   -2.5759 C   0  0  0  0  0  4           0  0  0
    8.7293    0.0183   -1.6591 C   0  0  0  0  0  4           0  0  0
    8.4768   -0.2228    0.7719 C   0  0  0  0  0  4           0  0  0
    9.3675   -1.3746   -1.7194 C   0  0  0  0  0  4           0  0  0
    9.1231   -1.6109    0.6890 C   0  0  0  0  0  4           0  0  0
   10.6665   -3.0175   -0.5213 C   0  0  0  0  0  4           0  0  0
   -4.3858   -0.0025   -4.1465 C   0  0  1  0  0  4           0  0  0
   -4.8976    0.8102   -5.3400 C   0  0  0  0  0  4           0  0  0
  1 24  2  0     0  0
  2 25  2  0     0  0
  3  4  1  0     0  0
  3 10  1  0     0  0
  4  9  2  0     0  0
  5 11  1  0     0  0
  5 28  1  0     0  0
  5 29  1  0     0  0
  6  9  1  0     0  0
  6 24  1  0     0  0
  7 25  1  0     0  0
  7 26  1  0     0  0
  7 27  1  0     0  0
  8 30  1  0     0  0
  8 31  1  0     0  0
  8 32  1  0     0  0
  9 12  1  0     0  0
 10 12  2  0     0  0
 10 26  1  0     0  0
 11 15  2  0     0  0
 11 16  1  0     0  0
 12 27  1  0     0  0
 13 17  2  0     0  0
 13 18  1  0     0  0
 13 24  1  0     0  0
 14 19  2  0     0  0
 14 20  1  0     0  0
 14 33  1  0     0  0
 15 17  1  0     0  0
 16 18  2  0     0  0
 19 21  1  0     0  0
 20 22  2  0     0  0
 21 23  2  0     0  0
 22 23  1  0     0  0
 25 33  1  0     0  0
 28 30  1  0     0  0
 29 31  1  0     0  0
 33 34  1  0     0  0
M  END
> <standard_type>
pIC50

> <# Confs.>
25

> <canonical_smiles>
CN1CCN(C2=CC=C(C(NC3=NNC4=C3CN(C([C@@H](C)C5=CC=CC=C5)=O)C4)=O)C=C2)CC1

> <standard_relation>
=

> <Publication_ID>
nan

> <predicted_activity_value>
6.214670164989233

> <actual_activity_value>
5.91721462968355

> <Compound>
41

> <standard_units>
nM

> hash
13919524722382095929

$$$$
41_
XXILIB    08252103423D 0   0.00000     0.00000

 34 38  0     1  0            999 V2000
    1.6982    0.0000   -2.2950 O   0  0  0  0  0  2           0  0  0
   -2.2044    0.0045   -5.1443 O   0  0  0  0  0  2           0  0  0
   -2.0089    0.0020    0.7462 N   0  0  0  0  0  3           0  0  0
   -0.7144    0.0000    1.1470 N   0  0  0  0  0  3           0  0  0
    7.8284   -0.0429   -0.5118 N   0  0  1  0  0  3           0  0  0
    1.3894   -0.0000   -0.0000 N   0  0  0  0  0  3           0  0  0
   -2.3640    0.0008   -2.8257 N   0  0  2  0  0  3           0  0  0
    9.8484   -1.2726    1.0580 N   0  0  1  0  0  3           0  0  0
    0.0000    0.0000    0.0000 C   0  0  0  0  0  4           0  0  0
   -2.1170    0.0009   -0.5939 C   0  0  0  0  0  4           0  0  0
    6.4557   -0.0273   -0.6567 C   0  0  0  0  0  4           0  0  0
   -0.8585   -0.0002   -1.1099 C   0  0  0  0  0  4           0  0  0
    3.6176    0.0025   -0.9557 C   0  0  0  0  0  4           0  0  0
   -4.9113   -1.4185   -4.1526 C   0  0  0  0  0  4           0  0  0
    5.8234   -0.5616   -1.7943 C   0  0  0  0  0  4           0  0  0
    5.6111    0.5228    0.3251 C   0  0  0  0  0  4           0  0  0
    4.4305   -0.5505   -1.9459 C   0  0  0  0  0  4           0  0  0
    4.2161    0.5404    0.1844 C   0  0  0  0  0  4           0  0  0
   -6.1685   -1.6989   -3.5964 C   0  0  0  0  0  4           0  0  0
   -4.1829   -2.4705   -4.7297 C   0  0  0  0  0  4           0  0  0
   -6.6786   -2.9986   -3.6065 C   0  0  0  0  0  4           0  0  0
   -4.6941   -3.7699   -4.7391 C   0  0  0  0  0  4           0  0  0
   -5.9409   -4.0337   -4.1770 C   0  0  0  0  0  4           0  0  0
    2.1478    0.0000   -1.1510 C   0  0  0  0  0  4           0  0  0
   -2.8742    0.0055   -4.1121 C   0  0  0  0  0  4           0  0  0
   -3.1945    0.0021   -1.5778 C   0  0  0  0  0  4           0  0  0
   -0.8866   -0.0016   -2.5759 C   0  0  0  0  0  4           0  0  0
    8.6575   -1.0938   -1.1048 C   0  0  0  0  0  4           0  0  0
    8.5086    0.7410    0.5208 C   0  0  0  0  0  4           0  0  0
    9.1386   -2.0285    0.0114 C   0  0  0  0  0  4           0  0  0
    8.9970   -0.2098    1.6203 C   0  0  0  0  0  4           0  0  0
   10.3150   -2.1708    2.1132 C   0  0  0  0  0  4           0  0  0
   -4.3858   -0.0025   -4.1465 C   0  0  1  0  0  4           0  0  0
   -4.8976    0.8102   -5.3400 C   0  0  0  0  0  4           0  0  0
  1 24  2  0     0  0
  2 25  2  0     0  0
  3  4  1  0     0  0
  3 10  1  0     0  0
  4  9  2  0     0  0
  5 11  1  0     0  0
  5 28  1  0     0  0
  5 29  1  0     0  0
  6  9  1  0     0  0
  6 24  1  0     0  0
  7 25  1  0     0  0
  7 26  1  0     0  0
  7 27  1  0     0  0
  8 30  1  0     0  0
  8 31  1  0     0  0
  8 32  1  0     0  0
  9 12  1  0     0  0
 10 12  2  0     0  0
 10 26  1  0     0  0
 11 15  2  0     0  0
 11 16  1  0     0  0
 12 27  1  0     0  0
 13 17  2  0     0  0
 13 18  1  0     0  0
 13 24  1  0     0  0
 14 19  2  0     0  0
 14 20  1  0     0  0
 14 33  1  0     0  0
 15 17  1  0     0  0
 16 18  2  0     0  0
 19 21  1  0     0  0
 20 22  2  0     0  0
 21 23  2  0     0  0
 22 23  1  0     0  0
 25 33  1  0     0  0
 28 30  1  0     0  0
 29 31  1  0     0  0
 33 34  1  0     0  0
M  END
> <standard_type>
pIC50

> <# Confs.>
25

> <canonical_smiles>
CN1CCN(C2=CC=C(C(NC3=NNC4=C3CN(C([C@@H](C)C5=CC=CC=C5)=O)C4)=O)C=C2)CC1

> <standard_relation>
=

> <Publication_ID>
nan

> <predicted_activity_value>
6.214670164989233

> <actual_activity_value>
5.91721462968355

> <Compound>
41

> <standard_units>
nM

> hash
13919524722382095929

$$$$
41_
XXILIB    08252103423D 0   0.00000     0.00000

 34 38  0     1  0            999 V2000
    1.6982    0.0000   -2.2950 O   0  0  0  0  0  2           0  0  0
   -2.2044    0.0045   -5.1443 O   0  0  0  0  0  2           0  0  0
   -2.0089    0.0020    0.7462 N   0  0  0  0  0  3           0  0  0
   -0.7144    0.0000    1.1470 N   0  0  0  0  0  3           0  0  0
    7.7988   -0.0526   -0.2892 N   0  0  1  0  0  3           0  0  0
    1.3894    0.0000    0.0000 N   0  0  0  0  0  3           0  0  0
   -2.3640    0.0008   -2.8257 N   0  0  2  0  0  3           0  0  0
   10.2097   -0.8229   -1.5744 N   0  0  1  0  0  3           0  0  0
    0.0000    0.0000    0.0000 C   0  0  0  0  0  4           0  0  0
   -2.1170    0.0009   -0.5939 C   0  0  0  0  0  4           0  0  0
    6.4358   -0.0352   -0.5070 C   0  0  0  0  0  4           0  0  0
   -0.8585   -0.0002   -1.1099 C   0  0  0  0  0  4           0  0  0
    3.6176    0.0025   -0.9557 C   0  0  0  0  0  4           0  0  0
   -4.9113   -1.4185   -4.1526 C   0  0  0  0  0  4           0  0  0
    5.5283   -0.5681    0.4267 C   0  0  0  0  0  4           0  0  0
    5.8768    0.5170   -1.6743 C   0  0  0  0  0  4           0  0  0
    4.1437   -0.5515    0.2120 C   0  0  0  0  0  4           0  0  0
    4.4932    0.5387   -1.9007 C   0  0  0  0  0  4           0  0  0
   -6.1685   -1.6989   -3.5964 C   0  0  0  0  0  4           0  0  0
   -4.1829   -2.4705   -4.7297 C   0  0  0  0  0  4           0  0  0
   -6.6786   -2.9986   -3.6065 C   0  0  0  0  0  4           0  0  0
   -4.6941   -3.7699   -4.7391 C   0  0  0  0  0  4           0  0  0
   -5.9409   -4.0337   -4.1770 C   0  0  0  0  0  4           0  0  0
    2.1478    0.0000   -1.1510 C   0  0  0  0  0  4           0  0  0
   -2.8742    0.0055   -4.1121 C   0  0  0  0  0  4           0  0  0
   -3.1945    0.0021   -1.5778 C   0  0  0  0  0  4           0  0  0
   -0.8866   -0.0016   -2.5759 C   0  0  0  0  0  4           0  0  0
    8.6830    0.9795   -0.8337 C   0  0  0  0  0  4           0  0  0
    8.4971   -1.2576    0.1625 C   0  0  0  0  0  4           0  0  0
    9.4758    0.3810   -2.0017 C   0  0  0  0  0  4           0  0  0
    9.2970   -1.8337   -1.0121 C   0  0  0  0  0  4           0  0  0
   10.9729   -1.3819   -2.6892 C   0  0  0  0  0  4           0  0  0
   -4.3858   -0.0025   -4.1465 C   0  0  1  0  0  4           0  0  0
   -4.8976    0.8102   -5.3400 C   0  0  0  0  0  4           0  0  0
  1 24  2  0     0  0
  2 25  2  0     0  0
  3  4  1  0     0  0
  3 10  1  0     0  0
  4  9  2  0     0  0
  5 11  1  0     0  0
  5 28  1  0     0  0
  5 29  1  0     0  0
  6  9  1  0     0  0
  6 24  1  0     0  0
  7 25  1  0     0  0
  7 26  1  0     0  0
  7 27  1  0     0  0
  8 30  1  0     0  0
  8 31  1  0     0  0
  8 32  1  0     0  0
  9 12  1  0     0  0
 10 12  2  0     0  0
 10 26  1  0     0  0
 11 15  2  0     0  0
 11 16  1  0     0  0
 12 27  1  0     0  0
 13 17  2  0     0  0
 13 18  1  0     0  0
 13 24  1  0     0  0
 14 19  2  0     0  0
 14 20  1  0     0  0
 14 33  1  0     0  0
 15 17  1  0     0  0
 16 18  2  0     0  0
 19 21  1  0     0  0
 20 22  2  0     0  0
 21 23  2  0     0  0
 22 23  1  0     0  0
 25 33  1  0     0  0
 28 30  1  0     0  0
 29 31  1  0     0  0
 33 34  1  0     0  0
M  END
> <standard_type>
pIC50

> <# Confs.>
25

> <canonical_smiles>
CN1CCN(C2=CC=C(C(NC3=NNC4=C3CN(C([C@@H](C)C5=CC=CC=C5)=O)C4)=O)C=C2)CC1

> <standard_relation>
=

> <Publication_ID>
nan

> <predicted_activity_value>
6.214670164989233

> <actual_activity_value>
5.91721462968355

> <Compound>
41

> <standard_units>
nM

> hash
13919524722382095929

$$$$
41_
XXILIB    08252103423D 0   0.00000     0.00000

 34 38  0     1  0            999 V2000
    1.6982    0.0000   -2.2950 O   0  0  0  0  0  2           0  0  0
   -4.0694    0.0111   -4.4046 O   0  0  0  0  0  2           0  0  0
   -2.0089    0.0020    0.7462 N   0  0  0  0  0  3           0  0  0
   -0.7144    0.0000    1.1470 N   0  0  0  0  0  3           0  0  0
    7.8275    0.0715   -0.5069 N   0  0  1  0  0  3           0  0  0
    1.3894    0.0000    0.0000 N   0  0  0  0  0  3           0  0  0
   -2.3640    0.0008   -2.8257 N   0  0  2  0  0  3           0  0  0
   10.0500   -1.6934   -0.4533 N   0  0  1  0  0  3           0  0  0
    0.0000    0.0000    0.0000 C   0  0  0  0  0  4           0  0  0
   -2.1170    0.0009   -0.5939 C   0  0  0  0  0  4           0  0  0
    6.4550    0.0496   -0.6527 C   0  0  0  0  0  4           0  0  0
   -0.8585   -0.0002   -1.1099 C   0  0  0  0  0  4           0  0  0
    3.6176    0.0025   -0.9557 C   0  0  0  0  0  4           0  0  0
   -1.4152    1.4347   -5.5291 C   0  0  0  0  0  4           0  0  0
    5.8211    0.5799   -1.7912 C   0  0  0  0  0  4           0  0  0
    5.6124   -0.5049    0.3283 C   0  0  0  0  0  4           0  0  0
    4.4286    0.5587   -1.9456 C   0  0  0  0  0  4           0  0  0
    4.2178   -0.5313    0.1855 C   0  0  0  0  0  4           0  0  0
   -0.1178    1.7147   -5.9841 C   0  0  0  0  0  4           0  0  0
   -2.3386    2.4884   -5.4434 C   0  0  0  0  0  4           0  0  0
    0.2498    3.0157   -6.3330 C   0  0  0  0  0  4           0  0  0
   -1.9696    3.7891   -5.7926 C   0  0  0  0  0  4           0  0  0
   -0.6758    4.0525   -6.2363 C   0  0  0  0  0  4           0  0  0
    2.1478    0.0000   -1.1510 C   0  0  0  0  0  4           0  0  0
   -2.8742    0.0055   -4.1121 C   0  0  0  0  0  4           0  0  0
   -3.1945    0.0021   -1.5778 C   0  0  0  0  0  4           0  0  0
   -0.8866   -0.0016   -2.5759 C   0  0  0  0  0  4           0  0  0
    8.7293    0.0183   -1.6591 C   0  0  0  0  0  4           0  0  0
    8.4768   -0.2228    0.7719 C   0  0  0  0  0  4           0  0  0
    9.3675   -1.3746   -1.7194 C   0  0  0  0  0  4           0  0  0
    9.1231   -1.6109    0.6890 C   0  0  0  0  0  4           0  0  0
   10.6665   -3.0175   -0.5213 C   0  0  0  0  0  4           0  0  0
   -1.7971    0.0174   -5.1732 C   0  0  1  0  0  4           0  0  0
   -2.2446   -0.7867   -6.3980 C   0  0  0  0  0  4           0  0  0
  1 24  2  0     0  0
  2 25  2  0     0  0
  3  4  1  0     0  0
  3 10  1  0     0  0
  4  9  2  0     0  0
  5 11  1  0     0  0
  5 28  1  0     0  0
  5 29  1  0     0  0
  6  9  1  0     0  0
  6 24  1  0     0  0
  7 25  1  0     0  0
  7 26  1  0     0  0
  7 27  1  0     0  0
  8 30  1  0     0  0
  8 31  1  0     0  0
  8 32  1  0     0  0
  9 12  1  0     0  0
 10 12  2  0     0  0
 10 26  1  0     0  0
 11 15  2  0     0  0
 11 16  1  0     0  0
 12 27  1  0     0  0
 13 17  2  0     0  0
 13 18  1  0     0  0
 13 24  1  0     0  0
 14 19  2  0     0  0
 14 20  1  0     0  0
 14 33  1  0     0  0
 15 17  1  0     0  0
 16 18  2  0     0  0
 19 21  1  0     0  0
 20 22  2  0     0  0
 21 23  2  0     0  0
 22 23  1  0     0  0
 25 33  1  0     0  0
 28 30  1  0     0  0
 29 31  1  0     0  0
 33 34  1  0     0  0
M  END
> <standard_type>
pIC50

> <# Confs.>
25

> <canonical_smiles>
CN1CCN(C2=CC=C(C(NC3=NNC4=C3CN(C([C@@H](C)C5=CC=CC=C5)=O)C4)=O)C=C2)CC1

> <standard_relation>
=

> <Publication_ID>
nan

> <predicted_activity_value>
6.214670164989233

> <actual_activity_value>
5.91721462968355

> <Compound>
41

> <standard_units>
nM

> hash
13919524722382095929

$$$$
41_
XXILIB    08252103423D 0   0.00000     0.00000

 34 38  0     1  0            999 V2000
    1.6982    0.0000   -2.2950 O   0  0  0  0  0  2           0  0  0
   -2.2044    0.0045   -5.1443 O   0  0  0  0  0  2           0  0  0
   -2.0089    0.0020    0.7462 N   0  0  0  0  0  3           0  0  0
   -0.7144    0.0000    1.1470 N   0  0  0  0  0  3           0  0  0
    7.8284   -0.0429   -0.5118 N   0  0  1  0  0  3           0  0  0
    1.3894   -0.0000   -0.0000 N   0  0  0  0  0  3           0  0  0
   -2.3640    0.0008   -2.8257 N   0  0  2  0  0  3           0  0  0
   10.7033   -0.0104   -0.1871 N   0  0  1  0  0  3           0  0  0
    0.0000    0.0000    0.0000 C   0  0  0  0  0  4           0  0  0
   -2.1170    0.0009   -0.5939 C   0  0  0  0  0  4           0  0  0
    6.4557   -0.0273   -0.6567 C   0  0  0  0  0  4           0  0  0
   -0.8585   -0.0002   -1.1099 C   0  0  0  0  0  4           0  0  0
    3.6176    0.0025   -0.9557 C   0  0  0  0  0  4           0  0  0
   -4.9113   -1.4185   -4.1526 C   0  0  0  0  0  4           0  0  0
    5.8234   -0.5616   -1.7943 C   0  0  0  0  0  4           0  0  0
    5.6111    0.5228    0.3251 C   0  0  0  0  0  4           0  0  0
    4.4305   -0.5505   -1.9459 C   0  0  0  0  0  4           0  0  0
    4.2161    0.5404    0.1844 C   0  0  0  0  0  4           0  0  0
   -6.1685   -1.6989   -3.5964 C   0  0  0  0  0  4           0  0  0
   -4.1829   -2.4705   -4.7297 C   0  0  0  0  0  4           0  0  0
   -6.6786   -2.9986   -3.6065 C   0  0  0  0  0  4           0  0  0
   -4.6941   -3.7699   -4.7391 C   0  0  0  0  0  4           0  0  0
   -5.9409   -4.0337   -4.1770 C   0  0  0  0  0  4           0  0  0
    2.1478    0.0000   -1.1510 C   0  0  0  0  0  4           0  0  0
   -2.8742    0.0055   -4.1121 C   0  0  0  0  0  4           0  0  0
   -3.1945    0.0021   -1.5778 C   0  0  0  0  0  4           0  0  0
   -0.8866   -0.0016   -2.5759 C   0  0  0  0  0  4           0  0  0
    8.6612    0.6463   -1.5039 C   0  0  0  0  0  4           0  0  0
    8.4073   -0.2328    0.8226 C   0  0  0  0  0  4           0  0  0
   10.0823    0.0762   -1.5121 C   0  0  0  0  0  4           0  0  0
    9.8393   -0.7669    0.7238 C   0  0  0  0  0  4           0  0  0
   11.0652    1.2995    0.3470 C   0  0  0  0  0  4           0  0  0
   -4.3858   -0.0025   -4.1465 C   0  0  1  0  0  4           0  0  0
   -4.8976    0.8102   -5.3400 C   0  0  0  0  0  4           0  0  0
  1 24  2  0     0  0
  2 25  2  0     0  0
  3  4  1  0     0  0
  3 10  1  0     0  0
  4  9  2  0     0  0
  5 11  1  0     0  0
  5 28  1  0     0  0
  5 29  1  0     0  0
  6  9  1  0     0  0
  6 24  1  0     0  0
  7 25  1  0     0  0
  7 26  1  0     0  0
  7 27  1  0     0  0
  8 30  1  0     0  0
  8 31  1  0     0  0
  8 32  1  0     0  0
  9 12  1  0     0  0
 10 12  2  0     0  0
 10 26  1  0     0  0
 11 15  2  0     0  0
 11 16  1  0     0  0
 12 27  1  0     0  0
 13 17  2  0     0  0
 13 18  1  0     0  0
 13 24  1  0     0  0
 14 19  2  0     0  0
 14 20  1  0     0  0
 14 33  1  0     0  0
 15 17  1  0     0  0
 16 18  2  0     0  0
 19 21  1  0     0  0
 20 22  2  0     0  0
 21 23  2  0     0  0
 22 23  1  0     0  0
 25 33  1  0     0  0
 28 30  1  0     0  0
 29 31  1  0     0  0
 33 34  1  0     0  0
M  END
> <standard_type>
pIC50

> <# Confs.>
25

> <canonical_smiles>
CN1CCN(C2=CC=C(C(NC3=NNC4=C3CN(C([C@@H](C)C5=CC=CC=C5)=O)C4)=O)C=C2)CC1

> <standard_relation>
=

> <Publication_ID>
nan

> <predicted_activity_value>
6.214670164989233

> <actual_activity_value>
5.91721462968355

> <Compound>
41

> <standard_units>
nM

> hash
13919524722382095929

$$$$
41_
XXILIB    08252103423D 0   0.00000     0.00000

 34 38  0     1  0            999 V2000
    1.6982    0.0000   -2.2950 O   0  0  0  0  0  2           0  0  0
   -4.0694    0.0111   -4.4046 O   0  0  0  0  0  2           0  0  0
   -2.0089    0.0020    0.7462 N   0  0  0  0  0  3           0  0  0
   -0.7144    0.0000    1.1470 N   0  0  0  0  0  3           0  0  0
    7.8284   -0.0429   -0.5118 N   0  0  1  0  0  3           0  0  0
    1.3894   -0.0000   -0.0000 N   0  0  0  0  0  3           0  0  0
   -2.3640    0.0008   -2.8257 N   0  0  2  0  0  3           0  0  0
    9.8484   -1.2726    1.0580 N   0  0  1  0  0  3           0  0  0
    0.0000    0.0000    0.0000 C   0  0  0  0  0  4           0  0  0
   -2.1170    0.0009   -0.5939 C   0  0  0  0  0  4           0  0  0
    6.4557   -0.0273   -0.6567 C   0  0  0  0  0  4           0  0  0
   -0.8585   -0.0002   -1.1099 C   0  0  0  0  0  4           0  0  0
    3.6176    0.0025   -0.9557 C   0  0  0  0  0  4           0  0  0
   -1.4152    1.4347   -5.5291 C   0  0  0  0  0  4           0  0  0
    5.8234   -0.5616   -1.7943 C   0  0  0  0  0  4           0  0  0
    5.6111    0.5228    0.3251 C   0  0  0  0  0  4           0  0  0
    4.4305   -0.5505   -1.9459 C   0  0  0  0  0  4           0  0  0
    4.2161    0.5404    0.1844 C   0  0  0  0  0  4           0  0  0
   -0.1178    1.7147   -5.9841 C   0  0  0  0  0  4           0  0  0
   -2.3386    2.4884   -5.4434 C   0  0  0  0  0  4           0  0  0
    0.2498    3.0157   -6.3330 C   0  0  0  0  0  4           0  0  0
   -1.9696    3.7891   -5.7926 C   0  0  0  0  0  4           0  0  0
   -0.6758    4.0525   -6.2363 C   0  0  0  0  0  4           0  0  0
    2.1478    0.0000   -1.1510 C   0  0  0  0  0  4           0  0  0
   -2.8742    0.0055   -4.1121 C   0  0  0  0  0  4           0  0  0
   -3.1945    0.0021   -1.5778 C   0  0  0  0  0  4           0  0  0
   -0.8866   -0.0016   -2.5759 C   0  0  0  0  0  4           0  0  0
    8.6575   -1.0938   -1.1048 C   0  0  0  0  0  4           0  0  0
    8.5086    0.7410    0.5208 C   0  0  0  0  0  4           0  0  0
    9.1386   -2.0285    0.0114 C   0  0  0  0  0  4           0  0  0
    8.9970   -0.2098    1.6203 C   0  0  0  0  0  4           0  0  0
   10.3150   -2.1708    2.1132 C   0  0  0  0  0  4           0  0  0
   -1.7971    0.0174   -5.1732 C   0  0  1  0  0  4           0  0  0
   -2.2446   -0.7867   -6.3980 C   0  0  0  0  0  4           0  0  0
  1 24  2  0     0  0
  2 25  2  0     0  0
  3  4  1  0     0  0
  3 10  1  0     0  0
  4  9  2  0     0  0
  5 11  1  0     0  0
  5 28  1  0     0  0
  5 29  1  0     0  0
  6  9  1  0     0  0
  6 24  1  0     0  0
  7 25  1  0     0  0
  7 26  1  0     0  0
  7 27  1  0     0  0
  8 30  1  0     0  0
  8 31  1  0     0  0
  8 32  1  0     0  0
  9 12  1  0     0  0
 10 12  2  0     0  0
 10 26  1  0     0  0
 11 15  2  0     0  0
 11 16  1  0     0  0
 12 27  1  0     0  0
 13 17  2  0     0  0
 13 18  1  0     0  0
 13 24  1  0     0  0
 14 19  2  0     0  0
 14 20  1  0     0  0
 14 33  1  0     0  0
 15 17  1  0     0  0
 16 18  2  0     0  0
 19 21  1  0     0  0
 20 22  2  0     0  0
 21 23  2  0     0  0
 22 23  1  0     0  0
 25 33  1  0     0  0
 28 30  1  0     0  0
 29 31  1  0     0  0
 33 34  1  0     0  0
M  END
> <standard_type>
pIC50

> <# Confs.>
25

> <canonical_smiles>
CN1CCN(C2=CC=C(C(NC3=NNC4=C3CN(C([C@@H](C)C5=CC=CC=C5)=O)C4)=O)C=C2)CC1

> <standard_relation>
=

> <Publication_ID>
nan

> <predicted_activity_value>
6.214670164989233

> <actual_activity_value>
5.91721462968355

> <Compound>
41

> <standard_units>
nM

> hash
13919524722382095929

$$$$
41_
XXILIB    08252103423D 0   0.00000     0.00000

 34 38  0     1  0            999 V2000
    1.6982    0.0000   -2.2950 O   0  0  0  0  0  2           0  0  0
   -2.3315   -0.4966   -5.0957 O   0  0  0  0  0  2           0  0  0
   -2.0089    0.0020    0.7462 N   0  0  0  0  0  3           0  0  0
   -0.7144   -0.0000    1.1470 N   0  0  0  0  0  3           0  0  0
    7.8284   -0.0429   -0.5118 N   0  0  1  0  0  3           0  0  0
    1.3894   -0.0000   -0.0000 N   0  0  0  0  0  3           0  0  0
   -2.3640    0.0008   -2.8257 N   0  0  2  0  0  3           0  0  0
   10.6292   -0.1595    0.0253 N   0  0  1  0  0  3           0  0  0
    0.0000    0.0000    0.0000 C   0  0  0  0  0  4           0  0  0
   -2.1170    0.0009   -0.5939 C   0  0  0  0  0  4           0  0  0
    6.4557   -0.0273   -0.6567 C   0  0  0  0  0  4           0  0  0
   -0.8585   -0.0002   -1.1099 C   0  0  0  0  0  4           0  0  0
    3.6176    0.0025   -0.9557 C   0  0  0  0  0  4           0  0  0
   -5.3390   -0.2881   -3.9789 C   0  0  0  0  0  4           0  0  0
    5.8234   -0.5616   -1.7943 C   0  0  0  0  0  4           0  0  0
    5.6111    0.5228    0.3251 C   0  0  0  0  0  4           0  0  0
    4.4305   -0.5505   -1.9459 C   0  0  0  0  0  4           0  0  0
    4.2161    0.5404    0.1844 C   0  0  0  0  0  4           0  0  0
   -6.5545    0.1560   -3.4367 C   0  0  0  0  0  4           0  0  0
   -5.2111   -1.6439   -4.3189 C   0  0  0  0  0  4           0  0  0
   -7.6098   -0.7343   -3.2290 C   0  0  0  0  0  4           0  0  0
   -6.2673   -2.5333   -4.1107 C   0  0  0  0  0  4           0  0  0
   -7.4656   -2.0787   -3.5652 C   0  0  0  0  0  4           0  0  0
    2.1478    0.0000   -1.1510 C   0  0  0  0  0  4           0  0  0
   -2.8742    0.0055   -4.1121 C   0  0  0  0  0  4           0  0  0
   -3.1945    0.0021   -1.5778 C   0  0  0  0  0  4           0  0  0
   -0.8866   -0.0016   -2.5759 C   0  0  0  0  0  4           0  0  0
    8.4749    1.0251    0.2589 C   0  0  0  0  0  4           0  0  0
    8.5369   -1.3255   -0.5823 C   0  0  0  0  0  4           0  0  0
    9.9580    1.1393   -0.0980 C   0  0  0  0  0  4           0  0  0
   10.0189   -1.1179   -0.9030 C   0  0  0  0  0  4           0  0  0
   12.0609   -0.0252   -0.2402 C   0  0  0  0  0  4           0  0  0
   -4.2162    0.6950   -4.2113 C   0  0  1  0  0  4           0  0  0
   -4.3479    1.4173   -5.5559 C   0  0  0  0  0  4           0  0  0
  1 24  2  0     0  0
  2 25  2  0     0  0
  3  4  1  0     0  0
  3 10  1  0     0  0
  4  9  2  0     0  0
  5 11  1  0     0  0
  5 28  1  0     0  0
  5 29  1  0     0  0
  6  9  1  0     0  0
  6 24  1  0     0  0
  7 25  1  0     0  0
  7 26  1  0     0  0
  7 27  1  0     0  0
  8 30  1  0     0  0
  8 31  1  0     0  0
  8 32  1  0     0  0
  9 12  1  0     0  0
 10 12  2  0     0  0
 10 26  1  0     0  0
 11 15  2  0     0  0
 11 16  1  0     0  0
 12 27  1  0     0  0
 13 17  2  0     0  0
 13 18  1  0     0  0
 13 24  1  0     0  0
 14 19  2  0     0  0
 14 20  1  0     0  0
 14 33  1  0     0  0
 15 17  1  0     0  0
 16 18  2  0     0  0
 19 21  1  0     0  0
 20 22  2  0     0  0
 21 23  2  0     0  0
 22 23  1  0     0  0
 25 33  1  0     0  0
 28 30  1  0     0  0
 29 31  1  0     0  0
 33 34  1  0     0  0
M  END
> <standard_type>
pIC50

> <# Confs.>
25

> <canonical_smiles>
CN1CCN(C2=CC=C(C(NC3=NNC4=C3CN(C([C@@H](C)C5=CC=CC=C5)=O)C4)=O)C=C2)CC1

> <standard_relation>
=

> <Publication_ID>
nan

> <predicted_activity_value>
6.214670164989233

> <actual_activity_value>
5.91721462968355

> <Compound>
41

> <standard_units>
nM

> hash
13919524722382095929

$$$$
41_
XXILIB    08252103423D 0   0.00000     0.00000

 34 38  0     1  0            999 V2000
    1.6982    0.0000   -2.2950 O   0  0  0  0  0  2           0  0  0
   -2.3315   -0.4966   -5.0957 O   0  0  0  0  0  2           0  0  0
   -2.0089    0.0020    0.7462 N   0  0  0  0  0  3           0  0  0
   -0.7144   -0.0000    1.1470 N   0  0  0  0  0  3           0  0  0
    7.8275    0.0715   -0.5069 N   0  0  1  0  0  3           0  0  0
    1.3894    0.0000    0.0000 N   0  0  0  0  0  3           0  0  0
   -2.3640    0.0008   -2.8257 N   0  0  2  0  0  3           0  0  0
   10.6503   -0.1273   -0.1339 N   0  0  1  0  0  3           0  0  0
    0.0000    0.0000    0.0000 C   0  0  0  0  0  4           0  0  0
   -2.1170    0.0009   -0.5939 C   0  0  0  0  0  4           0  0  0
    6.4550    0.0496   -0.6527 C   0  0  0  0  0  4           0  0  0
   -0.8585   -0.0002   -1.1099 C   0  0  0  0  0  4           0  0  0
    3.6176    0.0025   -0.9557 C   0  0  0  0  0  4           0  0  0
   -5.3390   -0.2881   -3.9789 C   0  0  0  0  0  4           0  0  0
    5.8211    0.5799   -1.7912 C   0  0  0  0  0  4           0  0  0
    5.6124   -0.5049    0.3283 C   0  0  0  0  0  4           0  0  0
    4.4286    0.5587   -1.9456 C   0  0  0  0  0  4           0  0  0
    4.2178   -0.5313    0.1855 C   0  0  0  0  0  4           0  0  0
   -6.5545    0.1560   -3.4367 C   0  0  0  0  0  4           0  0  0
   -5.2111   -1.6439   -4.3189 C   0  0  0  0  0  4           0  0  0
   -7.6098   -0.7343   -3.2290 C   0  0  0  0  0  4           0  0  0
   -6.2673   -2.5333   -4.1107 C   0  0  0  0  0  4           0  0  0
   -7.4656   -2.0787   -3.5652 C   0  0  0  0  0  4           0  0  0
    2.1478    0.0000   -1.1510 C   0  0  0  0  0  4           0  0  0
   -2.8742    0.0055   -4.1121 C   0  0  0  0  0  4           0  0  0
   -3.1945    0.0021   -1.5778 C   0  0  0  0  0  4           0  0  0
   -0.8866   -0.0016   -2.5759 C   0  0  0  0  0  4           0  0  0
    8.3988    0.1506    0.8421 C   0  0  0  0  0  4           0  0  0
    8.6629   -0.5499   -1.5404 C   0  0  0  0  0  4           0  0  0
    9.8395    0.6630    0.7992 C   0  0  0  0  0  4           0  0  0
   10.0946   -0.0117   -1.4869 C   0  0  0  0  0  4           0  0  0
   12.0429    0.3181   -0.1089 C   0  0  0  0  0  4           0  0  0
   -4.2162    0.6950   -4.2113 C   0  0  1  0  0  4           0  0  0
   -4.3479    1.4173   -5.5559 C   0  0  0  0  0  4           0  0  0
  1 24  2  0     0  0
  2 25  2  0     0  0
  3  4  1  0     0  0
  3 10  1  0     0  0
  4  9  2  0     0  0
  5 11  1  0     0  0
  5 28  1  0     0  0
  5 29  1  0     0  0
  6  9  1  0     0  0
  6 24  1  0     0  0
  7 25  1  0     0  0
  7 26  1  0     0  0
  7 27  1  0     0  0
  8 30  1  0     0  0
  8 31  1  0     0  0
  8 32  1  0     0  0
  9 12  1  0     0  0
 10 12  2  0     0  0
 10 26  1  0     0  0
 11 15  2  0     0  0
 11 16  1  0     0  0
 12 27  1  0     0  0
 13 17  2  0     0  0
 13 18  1  0     0  0
 13 24  1  0     0  0
 14 19  2  0     0  0
 14 20  1  0     0  0
 14 33  1  0     0  0
 15 17  1  0     0  0
 16 18  2  0     0  0
 19 21  1  0     0  0
 20 22  2  0     0  0
 21 23  2  0     0  0
 22 23  1  0     0  0
 25 33  1  0     0  0
 28 30  1  0     0  0
 29 31  1  0     0  0
 33 34  1  0     0  0
M  END
> <standard_type>
pIC50

> <# Confs.>
25

> <canonical_smiles>
CN1CCN(C2=CC=C(C(NC3=NNC4=C3CN(C([C@@H](C)C5=CC=CC=C5)=O)C4)=O)C=C2)CC1

> <standard_relation>
=

> <Publication_ID>
nan

> <predicted_activity_value>
6.214670164989233

> <actual_activity_value>
5.91721462968355

> <Compound>
41

> <standard_units>
nM

> hash
13919524722382095929

$$$$
41_
XXILIB    08252103423D 0   0.00000     0.00000

 34 38  0     1  0            999 V2000
    1.6982    0.0000   -2.2950 O   0  0  0  0  0  2           0  0  0
   -4.0694    0.0111   -4.4046 O   0  0  0  0  0  2           0  0  0
   -2.0089    0.0020    0.7462 N   0  0  0  0  0  3           0  0  0
   -0.7144    0.0000    1.1470 N   0  0  0  0  0  3           0  0  0
    7.7988   -0.0526   -0.2892 N   0  0  1  0  0  3           0  0  0
    1.3894    0.0000    0.0000 N   0  0  0  0  0  3           0  0  0
   -2.3640    0.0008   -2.8257 N   0  0  2  0  0  3           0  0  0
   10.2097   -0.8229   -1.5744 N   0  0  1  0  0  3           0  0  0
    0.0000    0.0000    0.0000 C   0  0  0  0  0  4           0  0  0
   -2.1170    0.0009   -0.5939 C   0  0  0  0  0  4           0  0  0
    6.4358   -0.0352   -0.5070 C   0  0  0  0  0  4           0  0  0
   -0.8585   -0.0002   -1.1099 C   0  0  0  0  0  4           0  0  0
    3.6176    0.0025   -0.9557 C   0  0  0  0  0  4           0  0  0
   -1.4152    1.4347   -5.5291 C   0  0  0  0  0  4           0  0  0
    5.5283   -0.5681    0.4267 C   0  0  0  0  0  4           0  0  0
    5.8768    0.5170   -1.6743 C   0  0  0  0  0  4           0  0  0
    4.1437   -0.5515    0.2120 C   0  0  0  0  0  4           0  0  0
    4.4932    0.5387   -1.9007 C   0  0  0  0  0  4           0  0  0
   -0.1178    1.7147   -5.9841 C   0  0  0  0  0  4           0  0  0
   -2.3386    2.4884   -5.4434 C   0  0  0  0  0  4           0  0  0
    0.2498    3.0157   -6.3330 C   0  0  0  0  0  4           0  0  0
   -1.9696    3.7891   -5.7926 C   0  0  0  0  0  4           0  0  0
   -0.6758    4.0525   -6.2363 C   0  0  0  0  0  4           0  0  0
    2.1478    0.0000   -1.1510 C   0  0  0  0  0  4           0  0  0
   -2.8742    0.0055   -4.1121 C   0  0  0  0  0  4           0  0  0
   -3.1945    0.0021   -1.5778 C   0  0  0  0  0  4           0  0  0
   -0.8866   -0.0016   -2.5759 C   0  0  0  0  0  4           0  0  0
    8.6830    0.9795   -0.8337 C   0  0  0  0  0  4           0  0  0
    8.4971   -1.2576    0.1625 C   0  0  0  0  0  4           0  0  0
    9.4758    0.3810   -2.0017 C   0  0  0  0  0  4           0  0  0
    9.2970   -1.8337   -1.0121 C   0  0  0  0  0  4           0  0  0
   10.9729   -1.3819   -2.6892 C   0  0  0  0  0  4           0  0  0
   -1.7971    0.0174   -5.1732 C   0  0  1  0  0  4           0  0  0
   -2.2446   -0.7867   -6.3980 C   0  0  0  0  0  4           0  0  0
  1 24  2  0     0  0
  2 25  2  0     0  0
  3  4  1  0     0  0
  3 10  1  0     0  0
  4  9  2  0     0  0
  5 11  1  0     0  0
  5 28  1  0     0  0
  5 29  1  0     0  0
  6  9  1  0     0  0
  6 24  1  0     0  0
  7 25  1  0     0  0
  7 26  1  0     0  0
  7 27  1  0     0  0
  8 30  1  0     0  0
  8 31  1  0     0  0
  8 32  1  0     0  0
  9 12  1  0     0  0
 10 12  2  0     0  0
 10 26  1  0     0  0
 11 15  2  0     0  0
 11 16  1  0     0  0
 12 27  1  0     0  0
 13 17  2  0     0  0
 13 18  1  0     0  0
 13 24  1  0     0  0
 14 19  2  0     0  0
 14 20  1  0     0  0
 14 33  1  0     0  0
 15 17  1  0     0  0
 16 18  2  0     0  0
 19 21  1  0     0  0
 20 22  2  0     0  0
 21 23  2  0     0  0
 22 23  1  0     0  0
 25 33  1  0     0  0
 28 30  1  0     0  0
 29 31  1  0     0  0
 33 34  1  0     0  0
M  END
> <standard_type>
pIC50

> <# Confs.>
25

> <canonical_smiles>
CN1CCN(C2=CC=C(C(NC3=NNC4=C3CN(C([C@@H](C)C5=CC=CC=C5)=O)C4)=O)C=C2)CC1

> <standard_relation>
=

> <Publication_ID>
nan

> <predicted_activity_value>
6.214670164989233

> <actual_activity_value>
5.91721462968355

> <Compound>
41

> <standard_units>
nM

> hash
13919524722382095929

$$$$
41_
XXILIB    08252103423D 0   0.00000     0.00000

 34 38  0     1  0            999 V2000
    1.6982    0.0000   -2.2950 O   0  0  0  0  0  2           0  0  0
   -4.0694    0.0111   -4.4046 O   0  0  0  0  0  2           0  0  0
   -2.0089    0.0020    0.7462 N   0  0  0  0  0  3           0  0  0
   -0.7144    0.0000    1.1470 N   0  0  0  0  0  3           0  0  0
    7.8284   -0.0429   -0.5118 N   0  0  1  0  0  3           0  0  0
    1.3894   -0.0000   -0.0000 N   0  0  0  0  0  3           0  0  0
   -2.3640    0.0008   -2.8257 N   0  0  2  0  0  3           0  0  0
   10.7033   -0.0104   -0.1871 N   0  0  1  0  0  3           0  0  0
    0.0000    0.0000    0.0000 C   0  0  0  0  0  4           0  0  0
   -2.1170    0.0009   -0.5939 C   0  0  0  0  0  4           0  0  0
    6.4557   -0.0273   -0.6567 C   0  0  0  0  0  4           0  0  0
   -0.8585   -0.0002   -1.1099 C   0  0  0  0  0  4           0  0  0
    3.6176    0.0025   -0.9557 C   0  0  0  0  0  4           0  0  0
   -1.4152    1.4347   -5.5291 C   0  0  0  0  0  4           0  0  0
    5.8234   -0.5616   -1.7943 C   0  0  0  0  0  4           0  0  0
    5.6111    0.5228    0.3251 C   0  0  0  0  0  4           0  0  0
    4.4305   -0.5505   -1.9459 C   0  0  0  0  0  4           0  0  0
    4.2161    0.5404    0.1844 C   0  0  0  0  0  4           0  0  0
   -0.1178    1.7147   -5.9841 C   0  0  0  0  0  4           0  0  0
   -2.3386    2.4884   -5.4434 C   0  0  0  0  0  4           0  0  0
    0.2498    3.0157   -6.3330 C   0  0  0  0  0  4           0  0  0
   -1.9696    3.7891   -5.7926 C   0  0  0  0  0  4           0  0  0
   -0.6758    4.0525   -6.2363 C   0  0  0  0  0  4           0  0  0
    2.1478    0.0000   -1.1510 C   0  0  0  0  0  4           0  0  0
   -2.8742    0.0055   -4.1121 C   0  0  0  0  0  4           0  0  0
   -3.1945    0.0021   -1.5778 C   0  0  0  0  0  4           0  0  0
   -0.8866   -0.0016   -2.5759 C   0  0  0  0  0  4           0  0  0
    8.6612    0.6463   -1.5039 C   0  0  0  0  0  4           0  0  0
    8.4073   -0.2328    0.8226 C   0  0  0  0  0  4           0  0  0
   10.0823    0.0762   -1.5121 C   0  0  0  0  0  4           0  0  0
    9.8393   -0.7669    0.7238 C   0  0  0  0  0  4           0  0  0
   11.0652    1.2995    0.3470 C   0  0  0  0  0  4           0  0  0
   -1.7971    0.0174   -5.1732 C   0  0  1  0  0  4           0  0  0
   -2.2446   -0.7867   -6.3980 C   0  0  0  0  0  4           0  0  0
  1 24  2  0     0  0
  2 25  2  0     0  0
  3  4  1  0     0  0
  3 10  1  0     0  0
  4  9  2  0     0  0
  5 11  1  0     0  0
  5 28  1  0     0  0
  5 29  1  0     0  0
  6  9  1  0     0  0
  6 24  1  0     0  0
  7 25  1  0     0  0
  7 26  1  0     0  0
  7 27  1  0     0  0
  8 30  1  0     0  0
  8 31  1  0     0  0
  8 32  1  0     0  0
  9 12  1  0     0  0
 10 12  2  0     0  0
 10 26  1  0     0  0
 11 15  2  0     0  0
 11 16  1  0     0  0
 12 27  1  0     0  0
 13 17  2  0     0  0
 13 18  1  0     0  0
 13 24  1  0     0  0
 14 19  2  0     0  0
 14 20  1  0     0  0
 14 33  1  0     0  0
 15 17  1  0     0  0
 16 18  2  0     0  0
 19 21  1  0     0  0
 20 22  2  0     0  0
 21 23  2  0     0  0
 22 23  1  0     0  0
 25 33  1  0     0  0
 28 30  1  0     0  0
 29 31  1  0     0  0
 33 34  1  0     0  0
M  END
> <standard_type>
pIC50

> <# Confs.>
25

> <canonical_smiles>
CN1CCN(C2=CC=C(C(NC3=NNC4=C3CN(C([C@@H](C)C5=CC=CC=C5)=O)C4)=O)C=C2)CC1

> <standard_relation>
=

> <Publication_ID>
nan

> <predicted_activity_value>
6.214670164989233

> <actual_activity_value>
5.91721462968355

> <Compound>
41

> <standard_units>
nM

> hash
13919524722382095929

$$$$
41_
XXILIB    08252103423D 0   0.00000     0.00000

 34 38  0     1  0            999 V2000
    1.6982    0.0000   -2.2950 O   0  0  0  0  0  2           0  0  0
   -2.2044    0.0045   -5.1443 O   0  0  0  0  0  2           0  0  0
   -2.0089    0.0020    0.7462 N   0  0  0  0  0  3           0  0  0
   -0.7144    0.0000    1.1470 N   0  0  0  0  0  3           0  0  0
    7.7979    0.0618   -0.2843 N   0  0  1  0  0  3           0  0  0
    1.3894   -0.0000   -0.0000 N   0  0  0  0  0  3           0  0  0
   -2.3640    0.0008   -2.8257 N   0  0  2  0  0  3           0  0  0
   10.1539    1.2988   -1.2726 N   0  0  1  0  0  3           0  0  0
    0.0000    0.0000    0.0000 C   0  0  0  0  0  4           0  0  0
   -2.1170    0.0009   -0.5939 C   0  0  0  0  0  4           0  0  0
    6.4351    0.0417   -0.5030 C   0  0  0  0  0  4           0  0  0
   -0.8585   -0.0002   -1.1099 C   0  0  0  0  0  4           0  0  0
    3.6176    0.0025   -0.9557 C   0  0  0  0  0  4           0  0  0
   -4.9113   -1.4185   -4.1526 C   0  0  0  0  0  4           0  0  0
    5.5260    0.5734    0.4297 C   0  0  0  0  0  4           0  0  0
    5.8781   -0.5108   -1.6711 C   0  0  0  0  0  4           0  0  0
    4.1419    0.5576    0.2123 C   0  0  0  0  0  4           0  0  0
    4.4949   -0.5330   -1.8996 C   0  0  0  0  0  4           0  0  0
   -6.1685   -1.6989   -3.5964 C   0  0  0  0  0  4           0  0  0
   -4.1829   -2.4705   -4.7297 C   0  0  0  0  0  4           0  0  0
   -6.6786   -2.9986   -3.6065 C   0  0  0  0  0  4           0  0  0
   -4.6941   -3.7699   -4.7391 C   0  0  0  0  0  4           0  0  0
   -5.9409   -4.0337   -4.1770 C   0  0  0  0  0  4           0  0  0
    2.1478    0.0000   -1.1510 C   0  0  0  0  0  4           0  0  0
   -2.8742    0.0055   -4.1121 C   0  0  0  0  0  4           0  0  0
   -3.1945    0.0021   -1.5778 C   0  0  0  0  0  4           0  0  0
   -0.8866   -0.0016   -2.5759 C   0  0  0  0  0  4           0  0  0
    8.4399    1.1152    0.5042 C   0  0  0  0  0  4           0  0  0
    8.7268   -0.7194   -1.1031 C   0  0  0  0  0  4           0  0  0
    9.1928    2.0519   -0.4480 C   0  0  0  0  0  4           0  0  0
    9.4824    0.2334   -2.0373 C   0  0  0  0  0  4           0  0  0
   10.8769    2.1990   -2.1697 C   0  0  0  0  0  4           0  0  0
   -4.3858   -0.0025   -4.1465 C   0  0  1  0  0  4           0  0  0
   -4.8976    0.8102   -5.3400 C   0  0  0  0  0  4           0  0  0
  1 24  2  0     0  0
  2 25  2  0     0  0
  3  4  1  0     0  0
  3 10  1  0     0  0
  4  9  2  0     0  0
  5 11  1  0     0  0
  5 28  1  0     0  0
  5 29  1  0     0  0
  6  9  1  0     0  0
  6 24  1  0     0  0
  7 25  1  0     0  0
  7 26  1  0     0  0
  7 27  1  0     0  0
  8 30  1  0     0  0
  8 31  1  0     0  0
  8 32  1  0     0  0
  9 12  1  0     0  0
 10 12  2  0     0  0
 10 26  1  0     0  0
 11 15  2  0     0  0
 11 16  1  0     0  0
 12 27  1  0     0  0
 13 17  2  0     0  0
 13 18  1  0     0  0
 13 24  1  0     0  0
 14 19  2  0     0  0
 14 20  1  0     0  0
 14 33  1  0     0  0
 15 17  1  0     0  0
 16 18  2  0     0  0
 19 21  1  0     0  0
 20 22  2  0     0  0
 21 23  2  0     0  0
 22 23  1  0     0  0
 25 33  1  0     0  0
 28 30  1  0     0  0
 29 31  1  0     0  0
 33 34  1  0     0  0
M  END
> <standard_type>
pIC50

> <# Confs.>
25

> <canonical_smiles>
CN1CCN(C2=CC=C(C(NC3=NNC4=C3CN(C([C@@H](C)C5=CC=CC=C5)=O)C4)=O)C=C2)CC1

> <standard_relation>
=

> <Publication_ID>
nan

> <predicted_activity_value>
6.214670164989233

> <actual_activity_value>
5.91721462968355

> <Compound>
41

> <standard_units>
nM

> hash
13919524722382095929

$$$$
41_
XXILIB    08252103423D 0   0.00000     0.00000

 34 38  0     1  0            999 V2000
    1.6982    0.0000   -2.2950 O   0  0  0  0  0  2           0  0  0
   -3.9423    0.5123   -4.4532 O   0  0  0  0  0  2           0  0  0
   -2.0089    0.0020    0.7462 N   0  0  0  0  0  3           0  0  0
   -0.7144    0.0000    1.1470 N   0  0  0  0  0  3           0  0  0
    7.8275    0.0715   -0.5069 N   0  0  1  0  0  3           0  0  0
    1.3894    0.0000    0.0000 N   0  0  0  0  0  3           0  0  0
   -2.3640    0.0008   -2.8257 N   0  0  2  0  0  3           0  0  0
   10.6503   -0.1273   -0.1339 N   0  0  1  0  0  3           0  0  0
    0.0000    0.0000    0.0000 C   0  0  0  0  0  4           0  0  0
   -2.1170    0.0009   -0.5939 C   0  0  0  0  0  4           0  0  0
    6.4550    0.0496   -0.6527 C   0  0  0  0  0  4           0  0  0
   -0.8585   -0.0002   -1.1099 C   0  0  0  0  0  4           0  0  0
    3.6176    0.0025   -0.9557 C   0  0  0  0  0  4           0  0  0
   -0.9875    0.3042   -5.7028 C   0  0  0  0  0  4           0  0  0
    5.8211    0.5799   -1.7912 C   0  0  0  0  0  4           0  0  0
    5.6124   -0.5049    0.3283 C   0  0  0  0  0  4           0  0  0
    4.4286    0.5587   -1.9456 C   0  0  0  0  0  4           0  0  0
    4.2178   -0.5313    0.1855 C   0  0  0  0  0  4           0  0  0
    0.2681   -0.1402   -6.1438 C   0  0  0  0  0  4           0  0  0
   -1.3103    1.6618   -5.8542 C   0  0  0  0  0  4           0  0  0
    1.1810    0.7514   -6.7105 C   0  0  0  0  0  4           0  0  0
   -0.3964    2.5525   -6.4211 C   0  0  0  0  0  4           0  0  0
    0.8489    2.0975   -6.8481 C   0  0  0  0  0  4           0  0  0
    2.1478    0.0000   -1.1510 C   0  0  0  0  0  4           0  0  0
   -2.8742    0.0055   -4.1121 C   0  0  0  0  0  4           0  0  0
   -3.1945    0.0021   -1.5778 C   0  0  0  0  0  4           0  0  0
   -0.8866   -0.0016   -2.5759 C   0  0  0  0  0  4           0  0  0
    8.3988    0.1506    0.8421 C   0  0  0  0  0  4           0  0  0
    8.6629   -0.5499   -1.5404 C   0  0  0  0  0  4           0  0  0
    9.8395    0.6630    0.7992 C   0  0  0  0  0  4           0  0  0
   10.0946   -0.0117   -1.4869 C   0  0  0  0  0  4           0  0  0
   12.0429    0.3181   -0.1089 C   0  0  0  0  0  4           0  0  0
   -1.9668   -0.6802   -5.1084 C   0  0  1  0  0  4           0  0  0
   -2.7943   -1.3938   -6.1821 C   0  0  0  0  0  4           0  0  0
  1 24  2  0     0  0
  2 25  2  0     0  0
  3  4  1  0     0  0
  3 10  1  0     0  0
  4  9  2  0     0  0
  5 11  1  0     0  0
  5 28  1  0     0  0
  5 29  1  0     0  0
  6  9  1  0     0  0
  6 24  1  0     0  0
  7 25  1  0     0  0
  7 26  1  0     0  0
  7 27  1  0     0  0
  8 30  1  0     0  0
  8 31  1  0     0  0
  8 32  1  0     0  0
  9 12  1  0     0  0
 10 12  2  0     0  0
 10 26  1  0     0  0
 11 15  2  0     0  0
 11 16  1  0     0  0
 12 27  1  0     0  0
 13 17  2  0     0  0
 13 18  1  0     0  0
 13 24  1  0     0  0
 14 19  2  0     0  0
 14 20  1  0     0  0
 14 33  1  0     0  0
 15 17  1  0     0  0
 16 18  2  0     0  0
 19 21  1  0     0  0
 20 22  2  0     0  0
 21 23  2  0     0  0
 22 23  1  0     0  0
 25 33  1  0     0  0
 28 30  1  0     0  0
 29 31  1  0     0  0
 33 34  1  0     0  0
M  END
> <standard_type>
pIC50

> <# Confs.>
25

> <canonical_smiles>
CN1CCN(C2=CC=C(C(NC3=NNC4=C3CN(C([C@@H](C)C5=CC=CC=C5)=O)C4)=O)C=C2)CC1

> <standard_relation>
=

> <Publication_ID>
nan

> <predicted_activity_value>
6.214670164989233

> <actual_activity_value>
5.91721462968355

> <Compound>
41

> <standard_units>
nM

> hash
13919524722382095929

$$$$
41_
XXILIB    08252103423D 0   0.00000     0.00000

 34 38  0     1  0            999 V2000
    1.6982    0.0000   -2.2950 O   0  0  0  0  0  2           0  0  0
   -4.0694    0.0111   -4.4046 O   0  0  0  0  0  2           0  0  0
   -2.0089    0.0020    0.7462 N   0  0  0  0  0  3           0  0  0
   -0.7144    0.0000    1.1470 N   0  0  0  0  0  3           0  0  0
    7.7979    0.0618   -0.2843 N   0  0  1  0  0  3           0  0  0
    1.3894   -0.0000   -0.0000 N   0  0  0  0  0  3           0  0  0
   -2.3640    0.0008   -2.8257 N   0  0  2  0  0  3           0  0  0
   10.1539    1.2988   -1.2726 N   0  0  1  0  0  3           0  0  0
    0.0000    0.0000    0.0000 C   0  0  0  0  0  4           0  0  0
   -2.1170    0.0009   -0.5939 C   0  0  0  0  0  4           0  0  0
    6.4351    0.0417   -0.5030 C   0  0  0  0  0  4           0  0  0
   -0.8585   -0.0002   -1.1099 C   0  0  0  0  0  4           0  0  0
    3.6176    0.0025   -0.9557 C   0  0  0  0  0  4           0  0  0
   -1.4152    1.4347   -5.5291 C   0  0  0  0  0  4           0  0  0
    5.5260    0.5734    0.4297 C   0  0  0  0  0  4           0  0  0
    5.8781   -0.5108   -1.6711 C   0  0  0  0  0  4           0  0  0
    4.1419    0.5576    0.2123 C   0  0  0  0  0  4           0  0  0
    4.4949   -0.5330   -1.8996 C   0  0  0  0  0  4           0  0  0
   -0.1178    1.7147   -5.9841 C   0  0  0  0  0  4           0  0  0
   -2.3386    2.4884   -5.4434 C   0  0  0  0  0  4           0  0  0
    0.2498    3.0157   -6.3330 C   0  0  0  0  0  4           0  0  0
   -1.9696    3.7891   -5.7926 C   0  0  0  0  0  4           0  0  0
   -0.6758    4.0525   -6.2363 C   0  0  0  0  0  4           0  0  0
    2.1478    0.0000   -1.1510 C   0  0  0  0  0  4           0  0  0
   -2.8742    0.0055   -4.1121 C   0  0  0  0  0  4           0  0  0
   -3.1945    0.0021   -1.5778 C   0  0  0  0  0  4           0  0  0
   -0.8866   -0.0016   -2.5759 C   0  0  0  0  0  4           0  0  0
    8.4399    1.1152    0.5042 C   0  0  0  0  0  4           0  0  0
    8.7268   -0.7194   -1.1031 C   0  0  0  0  0  4           0  0  0
    9.1928    2.0519   -0.4480 C   0  0  0  0  0  4           0  0  0
    9.4824    0.2334   -2.0373 C   0  0  0  0  0  4           0  0  0
   10.8769    2.1990   -2.1697 C   0  0  0  0  0  4           0  0  0
   -1.7971    0.0174   -5.1732 C   0  0  1  0  0  4           0  0  0
   -2.2446   -0.7867   -6.3980 C   0  0  0  0  0  4           0  0  0
  1 24  2  0     0  0
  2 25  2  0     0  0
  3  4  1  0     0  0
  3 10  1  0     0  0
  4  9  2  0     0  0
  5 11  1  0     0  0
  5 28  1  0     0  0
  5 29  1  0     0  0
  6  9  1  0     0  0
  6 24  1  0     0  0
  7 25  1  0     0  0
  7 26  1  0     0  0
  7 27  1  0     0  0
  8 30  1  0     0  0
  8 31  1  0     0  0
  8 32  1  0     0  0
  9 12  1  0     0  0
 10 12  2  0     0  0
 10 26  1  0     0  0
 11 15  2  0     0  0
 11 16  1  0     0  0
 12 27  1  0     0  0
 13 17  2  0     0  0
 13 18  1  0     0  0
 13 24  1  0     0  0
 14 19  2  0     0  0
 14 20  1  0     0  0
 14 33  1  0     0  0
 15 17  1  0     0  0
 16 18  2  0     0  0
 19 21  1  0     0  0
 20 22  2  0     0  0
 21 23  2  0     0  0
 22 23  1  0     0  0
 25 33  1  0     0  0
 28 30  1  0     0  0
 29 31  1  0     0  0
 33 34  1  0     0  0
M  END
> <standard_type>
pIC50

> <# Confs.>
25

> <canonical_smiles>
CN1CCN(C2=CC=C(C(NC3=NNC4=C3CN(C([C@@H](C)C5=CC=CC=C5)=O)C4)=O)C=C2)CC1

> <standard_relation>
=

> <Publication_ID>
nan

> <predicted_activity_value>
6.214670164989233

> <actual_activity_value>
5.91721462968355

> <Compound>
41

> <standard_units>
nM

> hash
13919524722382095929

$$$$
41_
XXILIB    08252103423D 0   0.00000     0.00000

 34 38  0     1  0            999 V2000
    1.6982    0.0000   -2.2950 O   0  0  0  0  0  2           0  0  0
   -3.9423    0.5123   -4.4532 O   0  0  0  0  0  2           0  0  0
   -2.0089    0.0020    0.7462 N   0  0  0  0  0  3           0  0  0
   -0.7144    0.0000    1.1470 N   0  0  0  0  0  3           0  0  0
    7.8284   -0.0429   -0.5118 N   0  0  1  0  0  3           0  0  0
    1.3894   -0.0000   -0.0000 N   0  0  0  0  0  3           0  0  0
   -2.3640    0.0008   -2.8257 N   0  0  2  0  0  3           0  0  0
   10.6292   -0.1595    0.0253 N   0  0  1  0  0  3           0  0  0
    0.0000    0.0000    0.0000 C   0  0  0  0  0  4           0  0  0
   -2.1170    0.0009   -0.5939 C   0  0  0  0  0  4           0  0  0
    6.4557   -0.0273   -0.6567 C   0  0  0  0  0  4           0  0  0
   -0.8585   -0.0002   -1.1099 C   0  0  0  0  0  4           0  0  0
    3.6176    0.0025   -0.9557 C   0  0  0  0  0  4           0  0  0
   -0.9875    0.3042   -5.7028 C   0  0  0  0  0  4           0  0  0
    5.8234   -0.5616   -1.7943 C   0  0  0  0  0  4           0  0  0
    5.6111    0.5228    0.3251 C   0  0  0  0  0  4           0  0  0
    4.4305   -0.5505   -1.9459 C   0  0  0  0  0  4           0  0  0
    4.2161    0.5404    0.1844 C   0  0  0  0  0  4           0  0  0
    0.2681   -0.1402   -6.1438 C   0  0  0  0  0  4           0  0  0
   -1.3103    1.6618   -5.8542 C   0  0  0  0  0  4           0  0  0
    1.1810    0.7514   -6.7105 C   0  0  0  0  0  4           0  0  0
   -0.3964    2.5525   -6.4211 C   0  0  0  0  0  4           0  0  0
    0.8489    2.0975   -6.8481 C   0  0  0  0  0  4           0  0  0
    2.1478    0.0000   -1.1510 C   0  0  0  0  0  4           0  0  0
   -2.8742    0.0055   -4.1121 C   0  0  0  0  0  4           0  0  0
   -3.1945    0.0021   -1.5778 C   0  0  0  0  0  4           0  0  0
   -0.8866   -0.0016   -2.5759 C   0  0  0  0  0  4           0  0  0
    8.4749    1.0251    0.2589 C   0  0  0  0  0  4           0  0  0
    8.5369   -1.3255   -0.5823 C   0  0  0  0  0  4           0  0  0
    9.9580    1.1393   -0.0980 C   0  0  0  0  0  4           0  0  0
   10.0189   -1.1179   -0.9030 C   0  0  0  0  0  4           0  0  0
   12.0609   -0.0252   -0.2402 C   0  0  0  0  0  4           0  0  0
   -1.9668   -0.6802   -5.1084 C   0  0  1  0  0  4           0  0  0
   -2.7943   -1.3938   -6.1821 C   0  0  0  0  0  4           0  0  0
  1 24  2  0     0  0
  2 25  2  0     0  0
  3  4  1  0     0  0
  3 10  1  0     0  0
  4  9  2  0     0  0
  5 11  1  0     0  0
  5 28  1  0     0  0
  5 29  1  0     0  0
  6  9  1  0     0  0
  6 24  1  0     0  0
  7 25  1  0     0  0
  7 26  1  0     0  0
  7 27  1  0     0  0
  8 30  1  0     0  0
  8 31  1  0     0  0
  8 32  1  0     0  0
  9 12  1  0     0  0
 10 12  2  0     0  0
 10 26  1  0     0  0
 11 15  2  0     0  0
 11 16  1  0     0  0
 12 27  1  0     0  0
 13 17  2  0     0  0
 13 18  1  0     0  0
 13 24  1  0     0  0
 14 19  2  0     0  0
 14 20  1  0     0  0
 14 33  1  0     0  0
 15 17  1  0     0  0
 16 18  2  0     0  0
 19 21  1  0     0  0
 20 22  2  0     0  0
 21 23  2  0     0  0
 22 23  1  0     0  0
 25 33  1  0     0  0
 28 30  1  0     0  0
 29 31  1  0     0  0
 33 34  1  0     0  0
M  END
> <standard_type>
pIC50

> <# Confs.>
25

> <canonical_smiles>
CN1CCN(C2=CC=C(C(NC3=NNC4=C3CN(C([C@@H](C)C5=CC=CC=C5)=O)C4)=O)C=C2)CC1

> <standard_relation>
=

> <Publication_ID>
nan

> <predicted_activity_value>
6.214670164989233

> <actual_activity_value>
5.91721462968355

> <Compound>
41

> <standard_units>
nM

> hash
13919524722382095929

$$$$
41_
XXILIB    08252103423D 0   0.00000     0.00000

 34 38  0     1  0            999 V2000
    1.6982    0.0000   -2.2950 O   0  0  0  0  0  2           0  0  0
   -2.2044    0.0045   -5.1443 O   0  0  0  0  0  2           0  0  0
   -2.0089    0.0020    0.7462 N   0  0  0  0  0  3           0  0  0
   -0.7144    0.0000    1.1470 N   0  0  0  0  0  3           0  0  0
    7.8275    0.0715   -0.5069 N   0  0  1  0  0  3           0  0  0
    1.3894    0.0000    0.0000 N   0  0  0  0  0  3           0  0  0
   -2.3640    0.0008   -2.8257 N   0  0  2  0  0  3           0  0  0
   10.6503   -0.1273   -0.1339 N   0  0  1  0  0  3           0  0  0
    0.0000    0.0000    0.0000 C   0  0  0  0  0  4           0  0  0
   -2.1170    0.0009   -0.5939 C   0  0  0  0  0  4           0  0  0
    6.4550    0.0496   -0.6527 C   0  0  0  0  0  4           0  0  0
   -0.8585   -0.0002   -1.1099 C   0  0  0  0  0  4           0  0  0
    3.6176    0.0025   -0.9557 C   0  0  0  0  0  4           0  0  0
   -4.8962   -1.2321   -4.8599 C   0  0  0  0  0  4           0  0  0
    5.8211    0.5799   -1.7912 C   0  0  0  0  0  4           0  0  0
    5.6124   -0.5049    0.3283 C   0  0  0  0  0  4           0  0  0
    4.4286    0.5587   -1.9456 C   0  0  0  0  0  4           0  0  0
    4.2178   -0.5313    0.1855 C   0  0  0  0  0  4           0  0  0
   -5.1799   -2.3957   -4.1291 C   0  0  0  0  0  4           0  0  0
   -5.1241   -1.2370   -6.2449 C   0  0  0  0  0  4           0  0  0
   -5.6674   -3.5375   -4.7680 C   0  0  0  0  0  4           0  0  0
   -5.6116   -2.3795   -6.8827 C   0  0  0  0  0  4           0  0  0
   -5.8822   -3.5294   -6.1445 C   0  0  0  0  0  4           0  0  0
    2.1478    0.0000   -1.1510 C   0  0  0  0  0  4           0  0  0
   -2.8742    0.0055   -4.1121 C   0  0  0  0  0  4           0  0  0
   -3.1945    0.0021   -1.5778 C   0  0  0  0  0  4           0  0  0
   -0.8866   -0.0016   -2.5759 C   0  0  0  0  0  4           0  0  0
    8.3988    0.1506    0.8421 C   0  0  0  0  0  4           0  0  0
    8.6629   -0.5499   -1.5404 C   0  0  0  0  0  4           0  0  0
    9.8395    0.6630    0.7992 C   0  0  0  0  0  4           0  0  0
   10.0946   -0.0117   -1.4869 C   0  0  0  0  0  4           0  0  0
   12.0429    0.3181   -0.1089 C   0  0  0  0  0  4           0  0  0
   -4.3858   -0.0025   -4.1465 C   0  0  1  0  0  4           0  0  0
   -4.9130    1.2917   -4.7741 C   0  0  0  0  0  4           0  0  0
  1 24  2  0     0  0
  2 25  2  0     0  0
  3  4  1  0     0  0
  3 10  1  0     0  0
  4  9  2  0     0  0
  5 11  1  0     0  0
  5 28  1  0     0  0
  5 29  1  0     0  0
  6  9  1  0     0  0
  6 24  1  0     0  0
  7 25  1  0     0  0
  7 26  1  0     0  0
  7 27  1  0     0  0
  8 30  1  0     0  0
  8 31  1  0     0  0
  8 32  1  0     0  0
  9 12  1  0     0  0
 10 12  2  0     0  0
 10 26  1  0     0  0
 11 15  2  0     0  0
 11 16  1  0     0  0
 12 27  1  0     0  0
 13 17  2  0     0  0
 13 18  1  0     0  0
 13 24  1  0     0  0
 14 19  2  0     0  0
 14 20  1  0     0  0
 14 33  1  0     0  0
 15 17  1  0     0  0
 16 18  2  0     0  0
 19 21  1  0     0  0
 20 22  2  0     0  0
 21 23  2  0     0  0
 22 23  1  0     0  0
 25 33  1  0     0  0
 28 30  1  0     0  0
 29 31  1  0     0  0
 33 34  1  0     0  0
M  END
> <standard_type>
pIC50

> <# Confs.>
25

> <canonical_smiles>
CN1CCN(C2=CC=C(C(NC3=NNC4=C3CN(C([C@@H](C)C5=CC=CC=C5)=O)C4)=O)C=C2)CC1

> <standard_relation>
=

> <Publication_ID>
nan

> <predicted_activity_value>
6.214670164989233

> <actual_activity_value>
5.91721462968355

> <Compound>
41

> <standard_units>
nM

> hash
13919524722382095929

$$$$
36_
XXILIB    08252103423D 0   0.00000     0.00000

 37 41  0     1  0            999 V2000
    2.0582    0.0000    1.0406 O   0  0  0  0  0  2           0  0  0
   -2.0037    0.0078   -3.5910 O   0  0  0  0  0  2           0  0  0
   -3.4508    0.0276    0.9895 N   0  0  0  0  0  3           0  0  0
   -4.3014    0.0297   -0.0655 N   0  0  0  0  0  3           0  0  0
   -5.9554   -0.0383   -8.6033 N   0  0  1  0  0  3           0  0  0
   -4.0121    0.0228   -2.4422 N   0  0  0  0  0  3           0  0  0
    1.9588   -0.0029   -1.2578 N   0  0  0  0  0  3           0  0  0
    0.0000    0.0000    0.0000 N   0  0  1  0  0  3           0  0  0
   -7.2136   -0.3643  -11.1439 N   0  0  1  0  0  3           0  0  0
   -3.4994    0.0224   -1.1529 C   0  0  0  0  0  4           0  0  0
   -2.1655    0.0140    0.5947 C   0  0  0  0  0  4           0  0  0
   -5.3067   -0.0225   -7.3849 C   0  0  0  0  0  4           0  0  0
    3.3476   -0.0062   -1.5088 C   0  0  0  0  0  4           0  0  0
   -2.1508    0.0132   -0.7651 C   0  0  0  0  0  4           0  0  0
    4.2308   -1.0268   -1.0693 C   0  0  0  0  0  4           0  0  0
    3.8699    1.0913   -2.2503 C   0  0  0  0  0  4           0  0  0
   -3.9646    0.0171   -4.8679 C   0  0  0  0  0  4           0  0  0
   -4.0185   -0.5644   -7.2230 C   0  0  0  0  0  4           0  0  0
   -5.8975    0.5370   -6.2369 C   0  0  0  0  0  4           0  0  0
    5.5996   -0.9313   -1.3969 C   0  0  0  0  0  4           0  0  0
    5.2418    1.1418   -2.5521 C   0  0  0  0  0  4           0  0  0
   -3.3545   -0.5465   -5.9897 C   0  0  0  0  0  4           0  0  0
   -5.2431    0.5603   -4.9977 C   0  0  0  0  0  4           0  0  0
    6.1008    0.1390   -2.1277 C   0  0  0  0  0  4           0  0  0
    1.3943   -0.0000   -0.0000 C   0  0  0  0  0  4           0  0  0
   -3.2328    0.0155   -3.5789 C   0  0  0  0  0  4           0  0  0
   -0.8541   -0.0000    1.2336 C   0  0  0  0  0  4           0  0  0
   -0.7781    0.0013   -1.2810 C   0  0  0  0  0  4           0  0  0
   -5.1549    0.0116   -9.8318 C   0  0  0  0  0  4           0  0  0
   -7.2714   -0.6796   -8.6961 C   0  0  0  0  0  4           0  0  0
   -6.0014    0.4539  -11.0270 C   0  0  0  0  0  4           0  0  0
   -8.0312   -0.2059   -9.9362 C   0  0  0  0  0  4           0  0  0
   -7.9763    0.0105  -12.3340 C   0  0  0  0  0  4           0  0  0
    3.8341   -2.2389   -0.2784 C   0  0  0  0  0  4           0  0  0
    3.0203    2.2208   -2.7549 C   0  0  0  0  0  4           0  0  0
    3.4592   -3.4121   -1.1714 C   0  0  0  0  0  4           0  0  0
    2.4708    1.9506   -4.1475 C   0  0  0  0  0  4           0  0  0
  1 25  2  0     0  0
  2 26  2  0     0  0
  3  4  1  0     0  0
  3 11  1  0     0  0
  4 10  2  0     0  0
  5 12  1  0     0  0
  5 29  1  0     0  0
  5 30  1  0     0  0
  6 10  1  0     0  0
  6 26  1  0     0  0
  7 13  1  0     0  0
  7 25  1  0     0  0
  8 25  1  0     0  0
  8 27  1  0     0  0
  8 28  1  0     0  0
  9 31  1  0     0  0
  9 32  1  0     0  0
  9 33  1  0     0  0
 10 14  1  0     0  0
 11 14  2  0     0  0
 11 27  1  0     0  0
 12 18  2  0     0  0
 12 19  1  0     0  0
 13 15  1  0     0  0
 13 16  2  0     0  0
 14 28  1  0     0  0
 15 20  2  0     0  0
 15 34  1  0     0  0
 16 21  1  0     0  0
 16 35  1  0     0  0
 17 22  2  0     0  0
 17 23  1  0     0  0
 17 26  1  0     0  0
 18 22  1  0     0  0
 19 23  2  0     0  0
 20 24  1  0     0  0
 21 24  2  0     0  0
 29 31  1  0     0  0
 30 32  1  0     0  0
 34 36  1  0     0  0
 35 37  1  0     0  0
M  END
> <standard_type>
pIC50

> <# Confs.>
25

> <canonical_smiles>
CN1CCN(C2=CC=C(C(NC3=NNC4=C3CN(C(NC5=C(CC)C=CC=C5CC)=O)C4)=O)C=C2)CC1

> <standard_relation>
=

> <Publication_ID>
nan

> <predicted_activity_value>
6.795880017344075

> <actual_activity_value>
6.8696662315049934

> <Compound>
36

> <standard_units>
nM

> hash
16611291984064295962

$$$$
36_
XXILIB    08252103423D 0   0.00000     0.00000

 37 41  0     1  0            999 V2000
    2.0582    0.0000    1.0406 O   0  0  0  0  0  2           0  0  0
   -2.0037    0.0078   -3.5910 O   0  0  0  0  0  2           0  0  0
   -3.4508    0.0276    0.9895 N   0  0  0  0  0  3           0  0  0
   -4.3014    0.0297   -0.0655 N   0  0  0  0  0  3           0  0  0
   -5.9535    0.0776   -8.6042 N   0  0  1  0  0  3           0  0  0
   -4.0121    0.0228   -2.4422 N   0  0  0  0  0  3           0  0  0
    1.9588   -0.0029   -1.2578 N   0  0  0  0  0  3           0  0  0
    0.0000    0.0000    0.0000 N   0  0  1  0  0  3           0  0  0
   -7.0374    0.0167  -11.2434 N   0  0  1  0  0  3           0  0  0
   -3.4994    0.0224   -1.1529 C   0  0  0  0  0  4           0  0  0
   -2.1655    0.0140    0.5947 C   0  0  0  0  0  4           0  0  0
   -5.3036    0.0561   -7.3865 C   0  0  0  0  0  4           0  0  0
    3.3476   -0.0062   -1.5088 C   0  0  0  0  0  4           0  0  0
   -2.1508    0.0132   -0.7651 C   0  0  0  0  0  4           0  0  0
    4.2308   -1.0268   -1.0693 C   0  0  0  0  0  4           0  0  0
    3.8699    1.0913   -2.2503 C   0  0  0  0  0  4           0  0  0
   -3.9646    0.0171   -4.8679 C   0  0  0  0  0  4           0  0  0
   -4.0071    0.5789   -7.2280 C   0  0  0  0  0  4           0  0  0
   -5.9018   -0.4896   -6.2357 C   0  0  0  0  0  4           0  0  0
    5.5996   -0.9313   -1.3969 C   0  0  0  0  0  4           0  0  0
    5.2418    1.1418   -2.5521 C   0  0  0  0  0  4           0  0  0
   -3.3455    0.5634   -5.9933 C   0  0  0  0  0  4           0  0  0
   -5.2496   -0.5110   -4.9953 C   0  0  0  0  0  4           0  0  0
    6.1008    0.1390   -2.1277 C   0  0  0  0  0  4           0  0  0
    1.3943   -0.0000   -0.0000 C   0  0  0  0  0  4           0  0  0
   -3.2328    0.0155   -3.5789 C   0  0  0  0  0  4           0  0  0
   -0.8541   -0.0000    1.2336 C   0  0  0  0  0  4           0  0  0
   -0.7781    0.0013   -1.2810 C   0  0  0  0  0  4           0  0  0
   -5.6540    1.1611   -9.5470 C   0  0  0  0  0  4           0  0  0
   -6.4243   -1.1878   -9.1777 C   0  0  0  0  0  4           0  0  0
   -6.7583    1.3035  -10.5962 C   0  0  0  0  0  4           0  0  0
   -7.4989   -0.9480  -10.2393 C   0  0  0  0  0  4           0  0  0
   -8.0356    0.1763  -12.3001 C   0  0  0  0  0  4           0  0  0
    3.8341   -2.2389   -0.2784 C   0  0  0  0  0  4           0  0  0
    3.0203    2.2208   -2.7549 C   0  0  0  0  0  4           0  0  0
    3.4592   -3.4121   -1.1714 C   0  0  0  0  0  4           0  0  0
    2.4708    1.9506   -4.1475 C   0  0  0  0  0  4           0  0  0
  1 25  2  0     0  0
  2 26  2  0     0  0
  3  4  1  0     0  0
  3 11  1  0     0  0
  4 10  2  0     0  0
  5 12  1  0     0  0
  5 29  1  0     0  0
  5 30  1  0     0  0
  6 10  1  0     0  0
  6 26  1  0     0  0
  7 13  1  0     0  0
  7 25  1  0     0  0
  8 25  1  0     0  0
  8 27  1  0     0  0
  8 28  1  0     0  0
  9 31  1  0     0  0
  9 32  1  0     0  0
  9 33  1  0     0  0
 10 14  1  0     0  0
 11 14  2  0     0  0
 11 27  1  0     0  0
 12 18  2  0     0  0
 12 19  1  0     0  0
 13 15  1  0     0  0
 13 16  2  0     0  0
 14 28  1  0     0  0
 15 20  2  0     0  0
 15 34  1  0     0  0
 16 21  1  0     0  0
 16 35  1  0     0  0
 17 22  2  0     0  0
 17 23  1  0     0  0
 17 26  1  0     0  0
 18 22  1  0     0  0
 19 23  2  0     0  0
 20 24  1  0     0  0
 21 24  2  0     0  0
 29 31  1  0     0  0
 30 32  1  0     0  0
 34 36  1  0     0  0
 35 37  1  0     0  0
M  END
> <standard_type>
pIC50

> <# Confs.>
25

> <canonical_smiles>
CN1CCN(C2=CC=C(C(NC3=NNC4=C3CN(C(NC5=C(CC)C=CC=C5CC)=O)C4)=O)C=C2)CC1

> <standard_relation>
=

> <Publication_ID>
nan

> <predicted_activity_value>
6.795880017344075

> <actual_activity_value>
6.8696662315049934

> <Compound>
36

> <standard_units>
nM

> hash
16611291984064295962

$$$$
36_
XXILIB    08252103423D 0   0.00000     0.00000

 37 41  0     1  0            999 V2000
    2.0582   -0.0000    1.0406 O   0  0  0  0  0  2           0  0  0
   -2.0037    0.0078   -3.5910 O   0  0  0  0  0  2           0  0  0
   -3.4508    0.0276    0.9895 N   0  0  0  0  0  3           0  0  0
   -4.3014    0.0297   -0.0655 N   0  0  0  0  0  3           0  0  0
   -5.9535    0.0776   -8.6042 N   0  0  1  0  0  3           0  0  0
   -4.0121    0.0228   -2.4422 N   0  0  0  0  0  3           0  0  0
    1.9588   -0.0029   -1.2578 N   0  0  0  0  0  3           0  0  0
    0.0000    0.0000    0.0000 N   0  0  1  0  0  3           0  0  0
   -7.0374    0.0167  -11.2434 N   0  0  1  0  0  3           0  0  0
   -3.4994    0.0224   -1.1529 C   0  0  0  0  0  4           0  0  0
   -2.1655    0.0140    0.5947 C   0  0  0  0  0  4           0  0  0
   -5.3036    0.0561   -7.3865 C   0  0  0  0  0  4           0  0  0
    3.3476   -0.0062   -1.5088 C   0  0  0  0  0  4           0  0  0
   -2.1508    0.0132   -0.7651 C   0  0  0  0  0  4           0  0  0
    4.2351    1.0118   -1.0721 C   0  0  0  0  0  4           0  0  0
    3.8655   -1.1087   -2.2459 C   0  0  0  0  0  4           0  0  0
   -3.9646    0.0171   -4.8679 C   0  0  0  0  0  4           0  0  0
   -4.0071    0.5789   -7.2280 C   0  0  0  0  0  4           0  0  0
   -5.9018   -0.4896   -6.2357 C   0  0  0  0  0  4           0  0  0
    5.6093    0.8907   -1.3672 C   0  0  0  0  0  4           0  0  0
    5.2430   -1.1848   -2.5151 C   0  0  0  0  0  4           0  0  0
   -3.3455    0.5634   -5.9933 C   0  0  0  0  0  4           0  0  0
   -5.2496   -0.5110   -4.9953 C   0  0  0  0  0  4           0  0  0
    6.1086   -0.1922   -2.0804 C   0  0  0  0  0  4           0  0  0
    1.3943   -0.0000    0.0000 C   0  0  0  0  0  4           0  0  0
   -3.2328    0.0155   -3.5789 C   0  0  0  0  0  4           0  0  0
   -0.8541   -0.0000    1.2336 C   0  0  0  0  0  4           0  0  0
   -0.7781    0.0013   -1.2810 C   0  0  0  0  0  4           0  0  0
   -5.6540    1.1611   -9.5470 C   0  0  0  0  0  4           0  0  0
   -6.4243   -1.1878   -9.1777 C   0  0  0  0  0  4           0  0  0
   -6.7583    1.3035  -10.5962 C   0  0  0  0  0  4           0  0  0
   -7.4989   -0.9480  -10.2393 C   0  0  0  0  0  4           0  0  0
   -8.0356    0.1763  -12.3001 C   0  0  0  0  0  4           0  0  0
    3.8421    2.2327   -0.2929 C   0  0  0  0  0  4           0  0  0
    3.0098   -2.2317   -2.7547 C   0  0  0  0  0  4           0  0  0
    3.4803    3.4014   -1.1970 C   0  0  0  0  0  4           0  0  0
    2.4712   -1.9586   -4.1509 C   0  0  0  0  0  4           0  0  0
  1 25  2  0     0  0
  2 26  2  0     0  0
  3  4  1  0     0  0
  3 11  1  0     0  0
  4 10  2  0     0  0
  5 12  1  0     0  0
  5 29  1  0     0  0
  5 30  1  0     0  0
  6 10  1  0     0  0
  6 26  1  0     0  0
  7 13  1  0     0  0
  7 25  1  0     0  0
  8 25  1  0     0  0
  8 27  1  0     0  0
  8 28  1  0     0  0
  9 31  1  0     0  0
  9 32  1  0     0  0
  9 33  1  0     0  0
 10 14  1  0     0  0
 11 14  2  0     0  0
 11 27  1  0     0  0
 12 18  2  0     0  0
 12 19  1  0     0  0
 13 15  1  0     0  0
 13 16  2  0     0  0
 14 28  1  0     0  0
 15 20  2  0     0  0
 15 34  1  0     0  0
 16 21  1  0     0  0
 16 35  1  0     0  0
 17 22  2  0     0  0
 17 23  1  0     0  0
 17 26  1  0     0  0
 18 22  1  0     0  0
 19 23  2  0     0  0
 20 24  1  0     0  0
 21 24  2  0     0  0
 29 31  1  0     0  0
 30 32  1  0     0  0
 34 36  1  0     0  0
 35 37  1  0     0  0
M  END
> <standard_type>
pIC50

> <# Confs.>
25

> <canonical_smiles>
CN1CCN(C2=CC=C(C(NC3=NNC4=C3CN(C(NC5=C(CC)C=CC=C5CC)=O)C4)=O)C=C2)CC1

> <standard_relation>
=

> <Publication_ID>
nan

> <predicted_activity_value>
6.795880017344075

> <actual_activity_value>
6.8696662315049934

> <Compound>
36

> <standard_units>
nM

> hash
16611291984064295962

$$$$
36_
XXILIB    08252103423D 0   0.00000     0.00000

 37 41  0     1  0            999 V2000
    2.0582   -0.0000    1.0406 O   0  0  0  0  0  2           0  0  0
   -2.0037    0.0078   -3.5910 O   0  0  0  0  0  2           0  0  0
   -3.4508    0.0276    0.9895 N   0  0  0  0  0  3           0  0  0
   -4.3014    0.0297   -0.0655 N   0  0  0  0  0  3           0  0  0
   -5.9554   -0.0383   -8.6033 N   0  0  1  0  0  3           0  0  0
   -4.0121    0.0228   -2.4422 N   0  0  0  0  0  3           0  0  0
    1.9588   -0.0029   -1.2578 N   0  0  0  0  0  3           0  0  0
    0.0000    0.0000    0.0000 N   0  0  1  0  0  3           0  0  0
   -7.2136   -0.3643  -11.1439 N   0  0  1  0  0  3           0  0  0
   -3.4994    0.0224   -1.1529 C   0  0  0  0  0  4           0  0  0
   -2.1655    0.0140    0.5947 C   0  0  0  0  0  4           0  0  0
   -5.3067   -0.0225   -7.3849 C   0  0  0  0  0  4           0  0  0
    3.3476   -0.0062   -1.5088 C   0  0  0  0  0  4           0  0  0
   -2.1508    0.0132   -0.7651 C   0  0  0  0  0  4           0  0  0
    4.2351    1.0118   -1.0721 C   0  0  0  0  0  4           0  0  0
    3.8655   -1.1087   -2.2459 C   0  0  0  0  0  4           0  0  0
   -3.9646    0.0171   -4.8679 C   0  0  0  0  0  4           0  0  0
   -4.0185   -0.5644   -7.2230 C   0  0  0  0  0  4           0  0  0
   -5.8975    0.5370   -6.2369 C   0  0  0  0  0  4           0  0  0
    5.6093    0.8907   -1.3672 C   0  0  0  0  0  4           0  0  0
    5.2430   -1.1848   -2.5151 C   0  0  0  0  0  4           0  0  0
   -3.3545   -0.5465   -5.9897 C   0  0  0  0  0  4           0  0  0
   -5.2431    0.5603   -4.9977 C   0  0  0  0  0  4           0  0  0
    6.1086   -0.1922   -2.0804 C   0  0  0  0  0  4           0  0  0
    1.3943   -0.0000    0.0000 C   0  0  0  0  0  4           0  0  0
   -3.2328    0.0155   -3.5789 C   0  0  0  0  0  4           0  0  0
   -0.8541   -0.0000    1.2336 C   0  0  0  0  0  4           0  0  0
   -0.7781    0.0013   -1.2810 C   0  0  0  0  0  4           0  0  0
   -5.1549    0.0116   -9.8318 C   0  0  0  0  0  4           0  0  0
   -7.2714   -0.6796   -8.6961 C   0  0  0  0  0  4           0  0  0
   -6.0014    0.4539  -11.0270 C   0  0  0  0  0  4           0  0  0
   -8.0312   -0.2059   -9.9362 C   0  0  0  0  0  4           0  0  0
   -7.9763    0.0105  -12.3340 C   0  0  0  0  0  4           0  0  0
    3.8421    2.2327   -0.2929 C   0  0  0  0  0  4           0  0  0
    3.0098   -2.2317   -2.7547 C   0  0  0  0  0  4           0  0  0
    3.4803    3.4014   -1.1970 C   0  0  0  0  0  4           0  0  0
    2.4712   -1.9586   -4.1509 C   0  0  0  0  0  4           0  0  0
  1 25  2  0     0  0
  2 26  2  0     0  0
  3  4  1  0     0  0
  3 11  1  0     0  0
  4 10  2  0     0  0
  5 12  1  0     0  0
  5 29  1  0     0  0
  5 30  1  0     0  0
  6 10  1  0     0  0
  6 26  1  0     0  0
  7 13  1  0     0  0
  7 25  1  0     0  0
  8 25  1  0     0  0
  8 27  1  0     0  0
  8 28  1  0     0  0
  9 31  1  0     0  0
  9 32  1  0     0  0
  9 33  1  0     0  0
 10 14  1  0     0  0
 11 14  2  0     0  0
 11 27  1  0     0  0
 12 18  2  0     0  0
 12 19  1  0     0  0
 13 15  1  0     0  0
 13 16  2  0     0  0
 14 28  1  0     0  0
 15 20  2  0     0  0
 15 34  1  0     0  0
 16 21  1  0     0  0
 16 35  1  0     0  0
 17 22  2  0     0  0
 17 23  1  0     0  0
 17 26  1  0     0  0
 18 22  1  0     0  0
 19 23  2  0     0  0
 20 24  1  0     0  0
 21 24  2  0     0  0
 29 31  1  0     0  0
 30 32  1  0     0  0
 34 36  1  0     0  0
 35 37  1  0     0  0
M  END
> <standard_type>
pIC50

> <# Confs.>
25

> <canonical_smiles>
CN1CCN(C2=CC=C(C(NC3=NNC4=C3CN(C(NC5=C(CC)C=CC=C5CC)=O)C4)=O)C=C2)CC1

> <standard_relation>
=

> <Publication_ID>
nan

> <predicted_activity_value>
6.795880017344075

> <actual_activity_value>
6.8696662315049934

> <Compound>
36

> <standard_units>
nM

> hash
16611291984064295962

$$$$
36_
XXILIB    08252103423D 0   0.00000     0.00000

 37 41  0     1  0            999 V2000
    2.0582   -0.0000    1.0406 O   0  0  0  0  0  2           0  0  0
   -2.0037    0.0078   -3.5910 O   0  0  0  0  0  2           0  0  0
   -3.4508    0.0276    0.9895 N   0  0  0  0  0  3           0  0  0
   -4.3014    0.0297   -0.0655 N   0  0  0  0  0  3           0  0  0
   -5.9535    0.0776   -8.6042 N   0  0  1  0  0  3           0  0  0
   -4.0121    0.0228   -2.4422 N   0  0  0  0  0  3           0  0  0
    1.9588   -0.0029   -1.2578 N   0  0  0  0  0  3           0  0  0
    0.0000    0.0000    0.0000 N   0  0  1  0  0  3           0  0  0
   -7.3844   -0.1646  -11.0614 N   0  0  1  0  0  3           0  0  0
   -3.4994    0.0224   -1.1529 C   0  0  0  0  0  4           0  0  0
   -2.1655    0.0140    0.5947 C   0  0  0  0  0  4           0  0  0
   -5.3036    0.0561   -7.3865 C   0  0  0  0  0  4           0  0  0
    3.3476   -0.0062   -1.5088 C   0  0  0  0  0  4           0  0  0
   -2.1508    0.0132   -0.7651 C   0  0  0  0  0  4           0  0  0
    4.2351    1.0118   -1.0721 C   0  0  0  0  0  4           0  0  0
    3.8655   -1.1087   -2.2459 C   0  0  0  0  0  4           0  0  0
   -3.9646    0.0171   -4.8679 C   0  0  0  0  0  4           0  0  0
   -4.0071    0.5789   -7.2280 C   0  0  0  0  0  4           0  0  0
   -5.9018   -0.4896   -6.2357 C   0  0  0  0  0  4           0  0  0
    5.6093    0.8907   -1.3672 C   0  0  0  0  0  4           0  0  0
    5.2430   -1.1848   -2.5151 C   0  0  0  0  0  4           0  0  0
   -3.3455    0.5634   -5.9933 C   0  0  0  0  0  4           0  0  0
   -5.2496   -0.5110   -4.9953 C   0  0  0  0  0  4           0  0  0
    6.1086   -0.1922   -2.0804 C   0  0  0  0  0  4           0  0  0
    1.3943   -0.0000    0.0000 C   0  0  0  0  0  4           0  0  0
   -3.2328    0.0155   -3.5789 C   0  0  0  0  0  4           0  0  0
   -0.8541   -0.0000    1.2336 C   0  0  0  0  0  4           0  0  0
   -0.7781    0.0013   -1.2810 C   0  0  0  0  0  4           0  0  0
   -5.3457   -0.6194   -9.7431 C   0  0  0  0  0  4           0  0  0
   -7.4119    0.2339   -8.6253 C   0  0  0  0  0  4           0  0  0
   -5.9181   -0.1167  -11.0699 C   0  0  0  0  0  4           0  0  0
   -7.8979    0.7046   -9.9970 C   0  0  0  0  0  4           0  0  0
   -7.9215    0.2404  -12.3599 C   0  0  0  0  0  4           0  0  0
    3.8421    2.2327   -0.2929 C   0  0  0  0  0  4           0  0  0
    3.0098   -2.2317   -2.7547 C   0  0  0  0  0  4           0  0  0
    3.4803    3.4014   -1.1970 C   0  0  0  0  0  4           0  0  0
    2.8915   -3.3671   -1.7490 C   0  0  0  0  0  4           0  0  0
  1 25  2  0     0  0
  2 26  2  0     0  0
  3  4  1  0     0  0
  3 11  1  0     0  0
  4 10  2  0     0  0
  5 12  1  0     0  0
  5 29  1  0     0  0
  5 30  1  0     0  0
  6 10  1  0     0  0
  6 26  1  0     0  0
  7 13  1  0     0  0
  7 25  1  0     0  0
  8 25  1  0     0  0
  8 27  1  0     0  0
  8 28  1  0     0  0
  9 31  1  0     0  0
  9 32  1  0     0  0
  9 33  1  0     0  0
 10 14  1  0     0  0
 11 14  2  0     0  0
 11 27  1  0     0  0
 12 18  2  0     0  0
 12 19  1  0     0  0
 13 15  1  0     0  0
 13 16  2  0     0  0
 14 28  1  0     0  0
 15 20  2  0     0  0
 15 34  1  0     0  0
 16 21  1  0     0  0
 16 35  1  0     0  0
 17 22  2  0     0  0
 17 23  1  0     0  0
 17 26  1  0     0  0
 18 22  1  0     0  0
 19 23  2  0     0  0
 20 24  1  0     0  0
 21 24  2  0     0  0
 29 31  1  0     0  0
 30 32  1  0     0  0
 34 36  1  0     0  0
 35 37  1  0     0  0
M  END
> <standard_type>
pIC50

> <# Confs.>
25

> <canonical_smiles>
CN1CCN(C2=CC=C(C(NC3=NNC4=C3CN(C(NC5=C(CC)C=CC=C5CC)=O)C4)=O)C=C2)CC1

> <standard_relation>
=

> <Publication_ID>
nan

> <predicted_activity_value>
6.795880017344075

> <actual_activity_value>
6.8696662315049934

> <Compound>
36

> <standard_units>
nM

> hash
16611291984064295962

$$$$
36_
XXILIB    08252103423D 0   0.00000     0.00000

 37 41  0     1  0            999 V2000
    2.0582    0.0000    1.0406 O   0  0  0  0  0  2           0  0  0
   -2.0037    0.0078   -3.5910 O   0  0  0  0  0  2           0  0  0
   -3.4508    0.0276    0.9895 N   0  0  0  0  0  3           0  0  0
   -4.3014    0.0297   -0.0655 N   0  0  0  0  0  3           0  0  0
   -5.9554   -0.0383   -8.6033 N   0  0  1  0  0  3           0  0  0
   -4.0121    0.0228   -2.4422 N   0  0  0  0  0  3           0  0  0
    1.9588   -0.0029   -1.2578 N   0  0  0  0  0  3           0  0  0
    0.0000    0.0000    0.0000 N   0  0  1  0  0  3           0  0  0
   -7.5476   -0.1540  -10.9688 N   0  0  1  0  0  3           0  0  0
   -3.4994    0.0224   -1.1529 C   0  0  0  0  0  4           0  0  0
   -2.1655    0.0140    0.5947 C   0  0  0  0  0  4           0  0  0
   -5.3067   -0.0225   -7.3849 C   0  0  0  0  0  4           0  0  0
    3.3476   -0.0062   -1.5088 C   0  0  0  0  0  4           0  0  0
   -2.1508    0.0132   -0.7651 C   0  0  0  0  0  4           0  0  0
    4.2308   -1.0268   -1.0693 C   0  0  0  0  0  4           0  0  0
    3.8699    1.0913   -2.2503 C   0  0  0  0  0  4           0  0  0
   -3.9646    0.0171   -4.8679 C   0  0  0  0  0  4           0  0  0
   -4.0185   -0.5644   -7.2230 C   0  0  0  0  0  4           0  0  0
   -5.8975    0.5370   -6.2369 C   0  0  0  0  0  4           0  0  0
    5.5996   -0.9313   -1.3969 C   0  0  0  0  0  4           0  0  0
    5.2418    1.1418   -2.5521 C   0  0  0  0  0  4           0  0  0
   -3.3545   -0.5465   -5.9897 C   0  0  0  0  0  4           0  0  0
   -5.2431    0.5603   -4.9977 C   0  0  0  0  0  4           0  0  0
    6.1008    0.1390   -2.1277 C   0  0  0  0  0  4           0  0  0
    1.3943   -0.0000   -0.0000 C   0  0  0  0  0  4           0  0  0
   -3.2328    0.0155   -3.5789 C   0  0  0  0  0  4           0  0  0
   -0.8541   -0.0000    1.2336 C   0  0  0  0  0  4           0  0  0
   -0.7781    0.0013   -1.2810 C   0  0  0  0  0  4           0  0  0
   -6.2299   -1.3301   -9.2421 C   0  0  0  0  0  4           0  0  0
   -6.8529    1.0716   -8.9415 C   0  0  0  0  0  4           0  0  0
   -6.5062   -1.1612  -10.7373 C   0  0  0  0  0  4           0  0  0
   -7.1003    1.1430  -10.4492 C   0  0  0  0  0  4           0  0  0
   -7.8633   -0.0560  -12.3933 C   0  0  0  0  0  4           0  0  0
    3.8341   -2.2389   -0.2784 C   0  0  0  0  0  4           0  0  0
    3.0203    2.2208   -2.7549 C   0  0  0  0  0  4           0  0  0
    3.4592   -3.4121   -1.1714 C   0  0  0  0  0  4           0  0  0
    2.9176    3.3581   -1.7498 C   0  0  0  0  0  4           0  0  0
  1 25  2  0     0  0
  2 26  2  0     0  0
  3  4  1  0     0  0
  3 11  1  0     0  0
  4 10  2  0     0  0
  5 12  1  0     0  0
  5 29  1  0     0  0
  5 30  1  0     0  0
  6 10  1  0     0  0
  6 26  1  0     0  0
  7 13  1  0     0  0
  7 25  1  0     0  0
  8 25  1  0     0  0
  8 27  1  0     0  0
  8 28  1  0     0  0
  9 31  1  0     0  0
  9 32  1  0     0  0
  9 33  1  0     0  0
 10 14  1  0     0  0
 11 14  2  0     0  0
 11 27  1  0     0  0
 12 18  2  0     0  0
 12 19  1  0     0  0
 13 15  1  0     0  0
 13 16  2  0     0  0
 14 28  1  0     0  0
 15 20  2  0     0  0
 15 34  1  0     0  0
 16 21  1  0     0  0
 16 35  1  0     0  0
 17 22  2  0     0  0
 17 23  1  0     0  0
 17 26  1  0     0  0
 18 22  1  0     0  0
 19 23  2  0     0  0
 20 24  1  0     0  0
 21 24  2  0     0  0
 29 31  1  0     0  0
 30 32  1  0     0  0
 34 36  1  0     0  0
 35 37  1  0     0  0
M  END
> <standard_type>
pIC50

> <# Confs.>
25

> <canonical_smiles>
CN1CCN(C2=CC=C(C(NC3=NNC4=C3CN(C(NC5=C(CC)C=CC=C5CC)=O)C4)=O)C=C2)CC1

> <standard_relation>
=

> <Publication_ID>
nan

> <predicted_activity_value>
6.795880017344075

> <actual_activity_value>
6.8696662315049934

> <Compound>
36

> <standard_units>
nM

> hash
16611291984064295962

$$$$
36_
XXILIB    08252103423D 0   0.00000     0.00000

 37 41  0     1  0            999 V2000
    2.0582    0.0000    1.0406 O   0  0  0  0  0  2           0  0  0
   -2.0037    0.0078   -3.5910 O   0  0  0  0  0  2           0  0  0
   -3.4508    0.0276    0.9895 N   0  0  0  0  0  3           0  0  0
   -4.3014    0.0297   -0.0655 N   0  0  0  0  0  3           0  0  0
   -5.9535    0.0776   -8.6042 N   0  0  1  0  0  3           0  0  0
   -4.0121    0.0228   -2.4422 N   0  0  0  0  0  3           0  0  0
    1.9588   -0.0029   -1.2578 N   0  0  0  0  0  3           0  0  0
    0.0000    0.0000    0.0000 N   0  0  1  0  0  3           0  0  0
   -7.3844   -0.1646  -11.0614 N   0  0  1  0  0  3           0  0  0
   -3.4994    0.0224   -1.1529 C   0  0  0  0  0  4           0  0  0
   -2.1655    0.0140    0.5947 C   0  0  0  0  0  4           0  0  0
   -5.3036    0.0561   -7.3865 C   0  0  0  0  0  4           0  0  0
    3.3476   -0.0062   -1.5088 C   0  0  0  0  0  4           0  0  0
   -2.1508    0.0132   -0.7651 C   0  0  0  0  0  4           0  0  0
    4.2308   -1.0268   -1.0693 C   0  0  0  0  0  4           0  0  0
    3.8699    1.0913   -2.2503 C   0  0  0  0  0  4           0  0  0
   -3.9646    0.0171   -4.8679 C   0  0  0  0  0  4           0  0  0
   -4.0071    0.5789   -7.2280 C   0  0  0  0  0  4           0  0  0
   -5.9018   -0.4896   -6.2357 C   0  0  0  0  0  4           0  0  0
    5.5996   -0.9313   -1.3969 C   0  0  0  0  0  4           0  0  0
    5.2418    1.1418   -2.5521 C   0  0  0  0  0  4           0  0  0
   -3.3455    0.5634   -5.9933 C   0  0  0  0  0  4           0  0  0
   -5.2496   -0.5110   -4.9953 C   0  0  0  0  0  4           0  0  0
    6.1008    0.1390   -2.1277 C   0  0  0  0  0  4           0  0  0
    1.3943   -0.0000   -0.0000 C   0  0  0  0  0  4           0  0  0
   -3.2328    0.0155   -3.5789 C   0  0  0  0  0  4           0  0  0
   -0.8541   -0.0000    1.2336 C   0  0  0  0  0  4           0  0  0
   -0.7781    0.0013   -1.2810 C   0  0  0  0  0  4           0  0  0
   -5.3457   -0.6194   -9.7431 C   0  0  0  0  0  4           0  0  0
   -7.4119    0.2339   -8.6253 C   0  0  0  0  0  4           0  0  0
   -5.9181   -0.1167  -11.0699 C   0  0  0  0  0  4           0  0  0
   -7.8979    0.7046   -9.9970 C   0  0  0  0  0  4           0  0  0
   -7.9215    0.2404  -12.3599 C   0  0  0  0  0  4           0  0  0
    3.8341   -2.2389   -0.2784 C   0  0  0  0  0  4           0  0  0
    3.0203    2.2208   -2.7549 C   0  0  0  0  0  4           0  0  0
    3.4592   -3.4121   -1.1714 C   0  0  0  0  0  4           0  0  0
    2.9176    3.3581   -1.7498 C   0  0  0  0  0  4           0  0  0
  1 25  2  0     0  0
  2 26  2  0     0  0
  3  4  1  0     0  0
  3 11  1  0     0  0
  4 10  2  0     0  0
  5 12  1  0     0  0
  5 29  1  0     0  0
  5 30  1  0     0  0
  6 10  1  0     0  0
  6 26  1  0     0  0
  7 13  1  0     0  0
  7 25  1  0     0  0
  8 25  1  0     0  0
  8 27  1  0     0  0
  8 28  1  0     0  0
  9 31  1  0     0  0
  9 32  1  0     0  0
  9 33  1  0     0  0
 10 14  1  0     0  0
 11 14  2  0     0  0
 11 27  1  0     0  0
 12 18  2  0     0  0
 12 19  1  0     0  0
 13 15  1  0     0  0
 13 16  2  0     0  0
 14 28  1  0     0  0
 15 20  2  0     0  0
 15 34  1  0     0  0
 16 21  1  0     0  0
 16 35  1  0     0  0
 17 22  2  0     0  0
 17 23  1  0     0  0
 17 26  1  0     0  0
 18 22  1  0     0  0
 19 23  2  0     0  0
 20 24  1  0     0  0
 21 24  2  0     0  0
 29 31  1  0     0  0
 30 32  1  0     0  0
 34 36  1  0     0  0
 35 37  1  0     0  0
M  END
> <standard_type>
pIC50

> <# Confs.>
25

> <canonical_smiles>
CN1CCN(C2=CC=C(C(NC3=NNC4=C3CN(C(NC5=C(CC)C=CC=C5CC)=O)C4)=O)C=C2)CC1

> <standard_relation>
=

> <Publication_ID>
nan

> <predicted_activity_value>
6.795880017344075

> <actual_activity_value>
6.8696662315049934

> <Compound>
36

> <standard_units>
nM

> hash
16611291984064295962

$$$$
36_
XXILIB    08252103423D 0   0.00000     0.00000

 37 41  0     1  0            999 V2000
    2.0582   -0.0000    1.0406 O   0  0  0  0  0  2           0  0  0
   -2.0037    0.0078   -3.5910 O   0  0  0  0  0  2           0  0  0
   -3.4508    0.0276    0.9895 N   0  0  0  0  0  3           0  0  0
   -4.3014    0.0297   -0.0655 N   0  0  0  0  0  3           0  0  0
   -5.9554   -0.0383   -8.6033 N   0  0  1  0  0  3           0  0  0
   -4.0121    0.0228   -2.4422 N   0  0  0  0  0  3           0  0  0
    1.9588   -0.0029   -1.2578 N   0  0  0  0  0  3           0  0  0
    0.0000    0.0000    0.0000 N   0  0  1  0  0  3           0  0  0
   -7.5476   -0.1540  -10.9688 N   0  0  1  0  0  3           0  0  0
   -3.4994    0.0224   -1.1529 C   0  0  0  0  0  4           0  0  0
   -2.1655    0.0140    0.5947 C   0  0  0  0  0  4           0  0  0
   -5.3067   -0.0225   -7.3849 C   0  0  0  0  0  4           0  0  0
    3.3476   -0.0062   -1.5088 C   0  0  0  0  0  4           0  0  0
   -2.1508    0.0132   -0.7651 C   0  0  0  0  0  4           0  0  0
    4.2351    1.0118   -1.0721 C   0  0  0  0  0  4           0  0  0
    3.8655   -1.1087   -2.2459 C   0  0  0  0  0  4           0  0  0
   -3.9646    0.0171   -4.8679 C   0  0  0  0  0  4           0  0  0
   -4.0185   -0.5644   -7.2230 C   0  0  0  0  0  4           0  0  0
   -5.8975    0.5370   -6.2369 C   0  0  0  0  0  4           0  0  0
    5.6093    0.8907   -1.3672 C   0  0  0  0  0  4           0  0  0
    5.2430   -1.1848   -2.5151 C   0  0  0  0  0  4           0  0  0
   -3.3545   -0.5465   -5.9897 C   0  0  0  0  0  4           0  0  0
   -5.2431    0.5603   -4.9977 C   0  0  0  0  0  4           0  0  0
    6.1086   -0.1922   -2.0804 C   0  0  0  0  0  4           0  0  0
    1.3943   -0.0000    0.0000 C   0  0  0  0  0  4           0  0  0
   -3.2328    0.0155   -3.5789 C   0  0  0  0  0  4           0  0  0
   -0.8541   -0.0000    1.2336 C   0  0  0  0  0  4           0  0  0
   -0.7781    0.0013   -1.2810 C   0  0  0  0  0  4           0  0  0
   -6.2299   -1.3301   -9.2421 C   0  0  0  0  0  4           0  0  0
   -6.8529    1.0716   -8.9415 C   0  0  0  0  0  4           0  0  0
   -6.5062   -1.1612  -10.7373 C   0  0  0  0  0  4           0  0  0
   -7.1003    1.1430  -10.4492 C   0  0  0  0  0  4           0  0  0
   -7.8633   -0.0560  -12.3933 C   0  0  0  0  0  4           0  0  0
    3.8421    2.2327   -0.2929 C   0  0  0  0  0  4           0  0  0
    3.0098   -2.2317   -2.7547 C   0  0  0  0  0  4           0  0  0
    3.4803    3.4014   -1.1970 C   0  0  0  0  0  4           0  0  0
    2.8915   -3.3671   -1.7490 C   0  0  0  0  0  4           0  0  0
  1 25  2  0     0  0
  2 26  2  0     0  0
  3  4  1  0     0  0
  3 11  1  0     0  0
  4 10  2  0     0  0
  5 12  1  0     0  0
  5 29  1  0     0  0
  5 30  1  0     0  0
  6 10  1  0     0  0
  6 26  1  0     0  0
  7 13  1  0     0  0
  7 25  1  0     0  0
  8 25  1  0     0  0
  8 27  1  0     0  0
  8 28  1  0     0  0
  9 31  1  0     0  0
  9 32  1  0     0  0
  9 33  1  0     0  0
 10 14  1  0     0  0
 11 14  2  0     0  0
 11 27  1  0     0  0
 12 18  2  0     0  0
 12 19  1  0     0  0
 13 15  1  0     0  0
 13 16  2  0     0  0
 14 28  1  0     0  0
 15 20  2  0     0  0
 15 34  1  0     0  0
 16 21  1  0     0  0
 16 35  1  0     0  0
 17 22  2  0     0  0
 17 23  1  0     0  0
 17 26  1  0     0  0
 18 22  1  0     0  0
 19 23  2  0     0  0
 20 24  1  0     0  0
 21 24  2  0     0  0
 29 31  1  0     0  0
 30 32  1  0     0  0
 34 36  1  0     0  0
 35 37  1  0     0  0
M  END
> <standard_type>
pIC50

> <# Confs.>
25

> <canonical_smiles>
CN1CCN(C2=CC=C(C(NC3=NNC4=C3CN(C(NC5=C(CC)C=CC=C5CC)=O)C4)=O)C=C2)CC1

> <standard_relation>
=

> <Publication_ID>
nan

> <predicted_activity_value>
6.795880017344075

> <actual_activity_value>
6.8696662315049934

> <Compound>
36

> <standard_units>
nM

> hash
16611291984064295962

$$$$
36_
XXILIB    08252103423D 0   0.00000     0.00000

 37 41  0     1  0            999 V2000
    2.0582    0.0000    1.0406 O   0  0  0  0  0  2           0  0  0
   -2.0037    0.0078   -3.5910 O   0  0  0  0  0  2           0  0  0
   -3.4508    0.0276    0.9895 N   0  0  0  0  0  3           0  0  0
   -4.3014    0.0297   -0.0655 N   0  0  0  0  0  3           0  0  0
   -5.9535    0.0776   -8.6042 N   0  0  1  0  0  3           0  0  0
   -4.0121    0.0228   -2.4422 N   0  0  0  0  0  3           0  0  0
    1.9588   -0.0029   -1.2578 N   0  0  0  0  0  3           0  0  0
    0.0000    0.0000    0.0000 N   0  0  1  0  0  3           0  0  0
   -5.8367   -0.6266  -11.3522 N   0  0  1  0  0  3           0  0  0
   -3.4994    0.0224   -1.1529 C   0  0  0  0  0  4           0  0  0
   -2.1655    0.0140    0.5947 C   0  0  0  0  0  4           0  0  0
   -5.3036    0.0561   -7.3865 C   0  0  0  0  0  4           0  0  0
    3.3476   -0.0062   -1.5088 C   0  0  0  0  0  4           0  0  0
   -2.1508    0.0132   -0.7651 C   0  0  0  0  0  4           0  0  0
    4.2308   -1.0268   -1.0693 C   0  0  0  0  0  4           0  0  0
    3.8699    1.0913   -2.2503 C   0  0  0  0  0  4           0  0  0
   -3.9646    0.0171   -4.8679 C   0  0  0  0  0  4           0  0  0
   -4.0071    0.5789   -7.2280 C   0  0  0  0  0  4           0  0  0
   -5.9018   -0.4896   -6.2357 C   0  0  0  0  0  4           0  0  0
    5.5996   -0.9313   -1.3969 C   0  0  0  0  0  4           0  0  0
    5.2418    1.1418   -2.5521 C   0  0  0  0  0  4           0  0  0
   -3.3455    0.5634   -5.9933 C   0  0  0  0  0  4           0  0  0
   -5.2496   -0.5110   -4.9953 C   0  0  0  0  0  4           0  0  0
    6.1008    0.1390   -2.1277 C   0  0  0  0  0  4           0  0  0
    1.3943   -0.0000   -0.0000 C   0  0  0  0  0  4           0  0  0
   -3.2328    0.0155   -3.5789 C   0  0  0  0  0  4           0  0  0
   -0.8541   -0.0000    1.2336 C   0  0  0  0  0  4           0  0  0
   -0.7781    0.0013   -1.2810 C   0  0  0  0  0  4           0  0  0
   -5.7135    1.1216   -9.6014 C   0  0  0  0  0  4           0  0  0
   -6.7513   -1.0493   -9.0896 C   0  0  0  0  0  4           0  0  0
   -5.0371    0.4914  -10.8243 C   0  0  0  0  0  4           0  0  0
   -6.0627   -1.6517  -10.3194 C   0  0  0  0  0  4           0  0  0
   -5.1852   -1.2138  -12.5226 C   0  0  0  0  0  4           0  0  0
    3.8341   -2.2389   -0.2784 C   0  0  0  0  0  4           0  0  0
    3.0203    2.2208   -2.7549 C   0  0  0  0  0  4           0  0  0
    3.4592   -3.4121   -1.1714 C   0  0  0  0  0  4           0  0  0
    2.4708    1.9506   -4.1475 C   0  0  0  0  0  4           0  0  0
  1 25  2  0     0  0
  2 26  2  0     0  0
  3  4  1  0     0  0
  3 11  1  0     0  0
  4 10  2  0     0  0
  5 12  1  0     0  0
  5 29  1  0     0  0
  5 30  1  0     0  0
  6 10  1  0     0  0
  6 26  1  0     0  0
  7 13  1  0     0  0
  7 25  1  0     0  0
  8 25  1  0     0  0
  8 27  1  0     0  0
  8 28  1  0     0  0
  9 31  1  0     0  0
  9 32  1  0     0  0
  9 33  1  0     0  0
 10 14  1  0     0  0
 11 14  2  0     0  0
 11 27  1  0     0  0
 12 18  2  0     0  0
 12 19  1  0     0  0
 13 15  1  0     0  0
 13 16  2  0     0  0
 14 28  1  0     0  0
 15 20  2  0     0  0
 15 34  1  0     0  0
 16 21  1  0     0  0
 16 35  1  0     0  0
 17 22  2  0     0  0
 17 23  1  0     0  0
 17 26  1  0     0  0
 18 22  1  0     0  0
 19 23  2  0     0  0
 20 24  1  0     0  0
 21 24  2  0     0  0
 29 31  1  0     0  0
 30 32  1  0     0  0
 34 36  1  0     0  0
 35 37  1  0     0  0
M  END
> <standard_type>
pIC50

> <# Confs.>
25

> <canonical_smiles>
CN1CCN(C2=CC=C(C(NC3=NNC4=C3CN(C(NC5=C(CC)C=CC=C5CC)=O)C4)=O)C=C2)CC1

> <standard_relation>
=

> <Publication_ID>
nan

> <predicted_activity_value>
6.795880017344075

> <actual_activity_value>
6.8696662315049934

> <Compound>
36

> <standard_units>
nM

> hash
16611291984064295962

$$$$
36_
XXILIB    08252103423D 0   0.00000     0.00000

 37 41  0     1  0            999 V2000
    2.0582   -0.0000    1.0406 O   0  0  0  0  0  2           0  0  0
   -2.0037    0.0078   -3.5910 O   0  0  0  0  0  2           0  0  0
   -3.4508    0.0276    0.9895 N   0  0  0  0  0  3           0  0  0
   -4.3014    0.0297   -0.0655 N   0  0  0  0  0  3           0  0  0
   -5.9535    0.0776   -8.6042 N   0  0  1  0  0  3           0  0  0
   -4.0121    0.0228   -2.4422 N   0  0  0  0  0  3           0  0  0
    1.9588   -0.0029   -1.2578 N   0  0  0  0  0  3           0  0  0
    0.0000    0.0000    0.0000 N   0  0  1  0  0  3           0  0  0
   -5.8367   -0.6266  -11.3522 N   0  0  1  0  0  3           0  0  0
   -3.4994    0.0224   -1.1529 C   0  0  0  0  0  4           0  0  0
   -2.1655    0.0140    0.5947 C   0  0  0  0  0  4           0  0  0
   -5.3036    0.0561   -7.3865 C   0  0  0  0  0  4           0  0  0
    3.3476   -0.0062   -1.5088 C   0  0  0  0  0  4           0  0  0
   -2.1508    0.0132   -0.7651 C   0  0  0  0  0  4           0  0  0
    4.2351    1.0118   -1.0721 C   0  0  0  0  0  4           0  0  0
    3.8655   -1.1087   -2.2459 C   0  0  0  0  0  4           0  0  0
   -3.9646    0.0171   -4.8679 C   0  0  0  0  0  4           0  0  0
   -4.0071    0.5789   -7.2280 C   0  0  0  0  0  4           0  0  0
   -5.9018   -0.4896   -6.2357 C   0  0  0  0  0  4           0  0  0
    5.6093    0.8907   -1.3672 C   0  0  0  0  0  4           0  0  0
    5.2430   -1.1848   -2.5151 C   0  0  0  0  0  4           0  0  0
   -3.3455    0.5634   -5.9933 C   0  0  0  0  0  4           0  0  0
   -5.2496   -0.5110   -4.9953 C   0  0  0  0  0  4           0  0  0
    6.1086   -0.1922   -2.0804 C   0  0  0  0  0  4           0  0  0
    1.3943   -0.0000    0.0000 C   0  0  0  0  0  4           0  0  0
   -3.2328    0.0155   -3.5789 C   0  0  0  0  0  4           0  0  0
   -0.8541   -0.0000    1.2336 C   0  0  0  0  0  4           0  0  0
   -0.7781    0.0013   -1.2810 C   0  0  0  0  0  4           0  0  0
   -5.7135    1.1216   -9.6014 C   0  0  0  0  0  4           0  0  0
   -6.7513   -1.0493   -9.0896 C   0  0  0  0  0  4           0  0  0
   -5.0371    0.4914  -10.8243 C   0  0  0  0  0  4           0  0  0
   -6.0627   -1.6517  -10.3194 C   0  0  0  0  0  4           0  0  0
   -5.1852   -1.2138  -12.5226 C   0  0  0  0  0  4           0  0  0
    3.8421    2.2327   -0.2929 C   0  0  0  0  0  4           0  0  0
    3.0098   -2.2317   -2.7547 C   0  0  0  0  0  4           0  0  0
    3.4803    3.4014   -1.1970 C   0  0  0  0  0  4           0  0  0
    2.4712   -1.9586   -4.1509 C   0  0  0  0  0  4           0  0  0
  1 25  2  0     0  0
  2 26  2  0     0  0
  3  4  1  0     0  0
  3 11  1  0     0  0
  4 10  2  0     0  0
  5 12  1  0     0  0
  5 29  1  0     0  0
  5 30  1  0     0  0
  6 10  1  0     0  0
  6 26  1  0     0  0
  7 13  1  0     0  0
  7 25  1  0     0  0
  8 25  1  0     0  0
  8 27  1  0     0  0
  8 28  1  0     0  0
  9 31  1  0     0  0
  9 32  1  0     0  0
  9 33  1  0     0  0
 10 14  1  0     0  0
 11 14  2  0     0  0
 11 27  1  0     0  0
 12 18  2  0     0  0
 12 19  1  0     0  0
 13 15  1  0     0  0
 13 16  2  0     0  0
 14 28  1  0     0  0
 15 20  2  0     0  0
 15 34  1  0     0  0
 16 21  1  0     0  0
 16 35  1  0     0  0
 17 22  2  0     0  0
 17 23  1  0     0  0
 17 26  1  0     0  0
 18 22  1  0     0  0
 19 23  2  0     0  0
 20 24  1  0     0  0
 21 24  2  0     0  0
 29 31  1  0     0  0
 30 32  1  0     0  0
 34 36  1  0     0  0
 35 37  1  0     0  0
M  END
> <standard_type>
pIC50

> <# Confs.>
25

> <canonical_smiles>
CN1CCN(C2=CC=C(C(NC3=NNC4=C3CN(C(NC5=C(CC)C=CC=C5CC)=O)C4)=O)C=C2)CC1

> <standard_relation>
=

> <Publication_ID>
nan

> <predicted_activity_value>
6.795880017344075

> <actual_activity_value>
6.8696662315049934

> <Compound>
36

> <standard_units>
nM

> hash
16611291984064295962

$$$$
36_
XXILIB    08252103423D 0   0.00000     0.00000

 37 41  0     1  0            999 V2000
    2.0582    0.0000    1.0406 O   0  0  0  0  0  2           0  0  0
   -2.0037    0.0078   -3.5910 O   0  0  0  0  0  2           0  0  0
   -3.4508    0.0276    0.9895 N   0  0  0  0  0  3           0  0  0
   -4.3014    0.0297   -0.0655 N   0  0  0  0  0  3           0  0  0
   -5.9554   -0.0383   -8.6033 N   0  0  1  0  0  3           0  0  0
   -4.0121    0.0228   -2.4422 N   0  0  0  0  0  3           0  0  0
    1.9588   -0.0029   -1.2578 N   0  0  0  0  0  3           0  0  0
    0.0000    0.0000    0.0000 N   0  0  1  0  0  3           0  0  0
   -6.8590   -1.6308  -10.7731 N   0  0  1  0  0  3           0  0  0
   -3.4994    0.0224   -1.1529 C   0  0  0  0  0  4           0  0  0
   -2.1655    0.0140    0.5947 C   0  0  0  0  0  4           0  0  0
   -5.3067   -0.0225   -7.3849 C   0  0  0  0  0  4           0  0  0
    3.3476   -0.0062   -1.5088 C   0  0  0  0  0  4           0  0  0
   -2.1508    0.0132   -0.7651 C   0  0  0  0  0  4           0  0  0
    4.2308   -1.0268   -1.0693 C   0  0  0  0  0  4           0  0  0
    3.8699    1.0913   -2.2503 C   0  0  0  0  0  4           0  0  0
   -3.9646    0.0171   -4.8679 C   0  0  0  0  0  4           0  0  0
   -4.0185   -0.5644   -7.2230 C   0  0  0  0  0  4           0  0  0
   -5.8975    0.5370   -6.2369 C   0  0  0  0  0  4           0  0  0
    5.5996   -0.9313   -1.3969 C   0  0  0  0  0  4           0  0  0
    5.2418    1.1418   -2.5521 C   0  0  0  0  0  4           0  0  0
   -3.3545   -0.5465   -5.9897 C   0  0  0  0  0  4           0  0  0
   -5.2431    0.5603   -4.9977 C   0  0  0  0  0  4           0  0  0
    6.1008    0.1390   -2.1277 C   0  0  0  0  0  4           0  0  0
    1.3943   -0.0000   -0.0000 C   0  0  0  0  0  4           0  0  0
   -3.2328    0.0155   -3.5789 C   0  0  0  0  0  4           0  0  0
   -0.8541   -0.0000    1.2336 C   0  0  0  0  0  4           0  0  0
   -0.7781    0.0013   -1.2810 C   0  0  0  0  0  4           0  0  0
   -5.2333    0.0085   -9.8754 C   0  0  0  0  0  4           0  0  0
   -7.3834   -0.3328   -8.7299 C   0  0  0  0  0  4           0  0  0
   -5.4285   -1.3258  -10.6044 C   0  0  0  0  0  4           0  0  0
   -7.5519   -1.6622   -9.4740 C   0  0  0  0  0  4           0  0  0
   -7.0318   -2.9014  -11.4765 C   0  0  0  0  0  4           0  0  0
    3.8341   -2.2389   -0.2784 C   0  0  0  0  0  4           0  0  0
    3.0203    2.2208   -2.7549 C   0  0  0  0  0  4           0  0  0
    3.4592   -3.4121   -1.1714 C   0  0  0  0  0  4           0  0  0
    2.4708    1.9506   -4.1475 C   0  0  0  0  0  4           0  0  0
  1 25  2  0     0  0
  2 26  2  0     0  0
  3  4  1  0     0  0
  3 11  1  0     0  0
  4 10  2  0     0  0
  5 12  1  0     0  0
  5 29  1  0     0  0
  5 30  1  0     0  0
  6 10  1  0     0  0
  6 26  1  0     0  0
  7 13  1  0     0  0
  7 25  1  0     0  0
  8 25  1  0     0  0
  8 27  1  0     0  0
  8 28  1  0     0  0
  9 31  1  0     0  0
  9 32  1  0     0  0
  9 33  1  0     0  0
 10 14  1  0     0  0
 11 14  2  0     0  0
 11 27  1  0     0  0
 12 18  2  0     0  0
 12 19  1  0     0  0
 13 15  1  0     0  0
 13 16  2  0     0  0
 14 28  1  0     0  0
 15 20  2  0     0  0
 15 34  1  0     0  0
 16 21  1  0     0  0
 16 35  1  0     0  0
 17 22  2  0     0  0
 17 23  1  0     0  0
 17 26  1  0     0  0
 18 22  1  0     0  0
 19 23  2  0     0  0
 20 24  1  0     0  0
 21 24  2  0     0  0
 29 31  1  0     0  0
 30 32  1  0     0  0
 34 36  1  0     0  0
 35 37  1  0     0  0
M  END
> <standard_type>
pIC50

> <# Confs.>
25

> <canonical_smiles>
CN1CCN(C2=CC=C(C(NC3=NNC4=C3CN(C(NC5=C(CC)C=CC=C5CC)=O)C4)=O)C=C2)CC1

> <standard_relation>
=

> <Publication_ID>
nan

> <predicted_activity_value>
6.795880017344075

> <actual_activity_value>
6.8696662315049934

> <Compound>
36

> <standard_units>
nM

> hash
16611291984064295962

$$$$
36_
XXILIB    08252103423D 0   0.00000     0.00000

 37 41  0     1  0            999 V2000
    2.0582   -0.0000    1.0406 O   0  0  0  0  0  2           0  0  0
   -2.0037    0.0078   -3.5910 O   0  0  0  0  0  2           0  0  0
   -3.4508    0.0276    0.9895 N   0  0  0  0  0  3           0  0  0
   -4.3014    0.0297   -0.0655 N   0  0  0  0  0  3           0  0  0
   -5.9554   -0.0383   -8.6033 N   0  0  1  0  0  3           0  0  0
   -4.0121    0.0228   -2.4422 N   0  0  0  0  0  3           0  0  0
    1.9588   -0.0029   -1.2578 N   0  0  0  0  0  3           0  0  0
    0.0000    0.0000    0.0000 N   0  0  1  0  0  3           0  0  0
   -6.8590   -1.6308  -10.7731 N   0  0  1  0  0  3           0  0  0
   -3.4994    0.0224   -1.1529 C   0  0  0  0  0  4           0  0  0
   -2.1655    0.0140    0.5947 C   0  0  0  0  0  4           0  0  0
   -5.3067   -0.0225   -7.3849 C   0  0  0  0  0  4           0  0  0
    3.3476   -0.0062   -1.5088 C   0  0  0  0  0  4           0  0  0
   -2.1508    0.0132   -0.7651 C   0  0  0  0  0  4           0  0  0
    4.2351    1.0118   -1.0721 C   0  0  0  0  0  4           0  0  0
    3.8655   -1.1087   -2.2459 C   0  0  0  0  0  4           0  0  0
   -3.9646    0.0171   -4.8679 C   0  0  0  0  0  4           0  0  0
   -4.0185   -0.5644   -7.2230 C   0  0  0  0  0  4           0  0  0
   -5.8975    0.5370   -6.2369 C   0  0  0  0  0  4           0  0  0
    5.6093    0.8907   -1.3672 C   0  0  0  0  0  4           0  0  0
    5.2430   -1.1848   -2.5151 C   0  0  0  0  0  4           0  0  0
   -3.3545   -0.5465   -5.9897 C   0  0  0  0  0  4           0  0  0
   -5.2431    0.5603   -4.9977 C   0  0  0  0  0  4           0  0  0
    6.1086   -0.1922   -2.0804 C   0  0  0  0  0  4           0  0  0
    1.3943   -0.0000    0.0000 C   0  0  0  0  0  4           0  0  0
   -3.2328    0.0155   -3.5789 C   0  0  0  0  0  4           0  0  0
   -0.8541   -0.0000    1.2336 C   0  0  0  0  0  4           0  0  0
   -0.7781    0.0013   -1.2810 C   0  0  0  0  0  4           0  0  0
   -5.2333    0.0085   -9.8754 C   0  0  0  0  0  4           0  0  0
   -7.3834   -0.3328   -8.7299 C   0  0  0  0  0  4           0  0  0
   -5.4285   -1.3258  -10.6044 C   0  0  0  0  0  4           0  0  0
   -7.5519   -1.6622   -9.4740 C   0  0  0  0  0  4           0  0  0
   -7.0318   -2.9014  -11.4765 C   0  0  0  0  0  4           0  0  0
    3.8421    2.2327   -0.2929 C   0  0  0  0  0  4           0  0  0
    3.0098   -2.2317   -2.7547 C   0  0  0  0  0  4           0  0  0
    3.4803    3.4014   -1.1970 C   0  0  0  0  0  4           0  0  0
    2.4712   -1.9586   -4.1509 C   0  0  0  0  0  4           0  0  0
  1 25  2  0     0  0
  2 26  2  0     0  0
  3  4  1  0     0  0
  3 11  1  0     0  0
  4 10  2  0     0  0
  5 12  1  0     0  0
  5 29  1  0     0  0
  5 30  1  0     0  0
  6 10  1  0     0  0
  6 26  1  0     0  0
  7 13  1  0     0  0
  7 25  1  0     0  0
  8 25  1  0     0  0
  8 27  1  0     0  0
  8 28  1  0     0  0
  9 31  1  0     0  0
  9 32  1  0     0  0
  9 33  1  0     0  0
 10 14  1  0     0  0
 11 14  2  0     0  0
 11 27  1  0     0  0
 12 18  2  0     0  0
 12 19  1  0     0  0
 13 15  1  0     0  0
 13 16  2  0     0  0
 14 28  1  0     0  0
 15 20  2  0     0  0
 15 34  1  0     0  0
 16 21  1  0     0  0
 16 35  1  0     0  0
 17 22  2  0     0  0
 17 23  1  0     0  0
 17 26  1  0     0  0
 18 22  1  0     0  0
 19 23  2  0     0  0
 20 24  1  0     0  0
 21 24  2  0     0  0
 29 31  1  0     0  0
 30 32  1  0     0  0
 34 36  1  0     0  0
 35 37  1  0     0  0
M  END
> <standard_type>
pIC50

> <# Confs.>
25

> <canonical_smiles>
CN1CCN(C2=CC=C(C(NC3=NNC4=C3CN(C(NC5=C(CC)C=CC=C5CC)=O)C4)=O)C=C2)CC1

> <standard_relation>
=

> <Publication_ID>
nan

> <predicted_activity_value>
6.795880017344075

> <actual_activity_value>
6.8696662315049934

> <Compound>
36

> <standard_units>
nM

> hash
16611291984064295962

$$$$
36_
XXILIB    08252103423D 0   0.00000     0.00000

 37 41  0     1  0            999 V2000
    2.0582    0.0000    1.0406 O   0  0  0  0  0  2           0  0  0
   -2.0037    0.0078   -3.5910 O   0  0  0  0  0  2           0  0  0
   -3.4508    0.0276    0.9895 N   0  0  0  0  0  3           0  0  0
   -4.3014    0.0297   -0.0655 N   0  0  0  0  0  3           0  0  0
   -5.9535    0.0776   -8.6042 N   0  0  1  0  0  3           0  0  0
   -4.0121    0.0228   -2.4422 N   0  0  0  0  0  3           0  0  0
    1.9588   -0.0029   -1.2578 N   0  0  0  0  0  3           0  0  0
    0.0000    0.0000    0.0000 N   0  0  1  0  0  3           0  0  0
   -8.2907    0.8556  -10.0160 N   0  0  1  0  0  3           0  0  0
   -3.4994    0.0224   -1.1529 C   0  0  0  0  0  4           0  0  0
   -2.1655    0.0140    0.5947 C   0  0  0  0  0  4           0  0  0
   -5.3036    0.0561   -7.3865 C   0  0  0  0  0  4           0  0  0
    3.3476   -0.0062   -1.5088 C   0  0  0  0  0  4           0  0  0
   -2.1508    0.0132   -0.7651 C   0  0  0  0  0  4           0  0  0
    4.2308   -1.0268   -1.0693 C   0  0  0  0  0  4           0  0  0
    3.8699    1.0913   -2.2503 C   0  0  0  0  0  4           0  0  0
   -3.9646    0.0171   -4.8679 C   0  0  0  0  0  4           0  0  0
   -4.0071    0.5789   -7.2280 C   0  0  0  0  0  4           0  0  0
   -5.9018   -0.4896   -6.2357 C   0  0  0  0  0  4           0  0  0
    5.5996   -0.9313   -1.3969 C   0  0  0  0  0  4           0  0  0
    5.2418    1.1418   -2.5521 C   0  0  0  0  0  4           0  0  0
   -3.3455    0.5634   -5.9933 C   0  0  0  0  0  4           0  0  0
   -5.2496   -0.5110   -4.9953 C   0  0  0  0  0  4           0  0  0
    6.1008    0.1390   -2.1277 C   0  0  0  0  0  4           0  0  0
    1.3943   -0.0000   -0.0000 C   0  0  0  0  0  4           0  0  0
   -3.2328    0.0155   -3.5789 C   0  0  0  0  0  4           0  0  0
   -0.8541   -0.0000    1.2336 C   0  0  0  0  0  4           0  0  0
   -0.7781    0.0013   -1.2810 C   0  0  0  0  0  4           0  0  0
   -6.9308   -0.9418   -8.9882 C   0  0  0  0  0  4           0  0  0
   -5.8960    1.2291   -9.5057 C   0  0  0  0  0  4           0  0  0
   -8.3138   -0.2882   -9.0891 C   0  0  0  0  0  4           0  0  0
   -7.2919    1.8551   -9.6011 C   0  0  0  0  0  4           0  0  0
   -9.6168    1.4652  -10.1096 C   0  0  0  0  0  4           0  0  0
    3.8341   -2.2389   -0.2784 C   0  0  0  0  0  4           0  0  0
    3.0203    2.2208   -2.7549 C   0  0  0  0  0  4           0  0  0
    3.4592   -3.4121   -1.1714 C   0  0  0  0  0  4           0  0  0
    2.4708    1.9506   -4.1475 C   0  0  0  0  0  4           0  0  0
  1 25  2  0     0  0
  2 26  2  0     0  0
  3  4  1  0     0  0
  3 11  1  0     0  0
  4 10  2  0     0  0
  5 12  1  0     0  0
  5 29  1  0     0  0
  5 30  1  0     0  0
  6 10  1  0     0  0
  6 26  1  0     0  0
  7 13  1  0     0  0
  7 25  1  0     0  0
  8 25  1  0     0  0
  8 27  1  0     0  0
  8 28  1  0     0  0
  9 31  1  0     0  0
  9 32  1  0     0  0
  9 33  1  0     0  0
 10 14  1  0     0  0
 11 14  2  0     0  0
 11 27  1  0     0  0
 12 18  2  0     0  0
 12 19  1  0     0  0
 13 15  1  0     0  0
 13 16  2  0     0  0
 14 28  1  0     0  0
 15 20  2  0     0  0
 15 34  1  0     0  0
 16 21  1  0     0  0
 16 35  1  0     0  0
 17 22  2  0     0  0
 17 23  1  0     0  0
 17 26  1  0     0  0
 18 22  1  0     0  0
 19 23  2  0     0  0
 20 24  1  0     0  0
 21 24  2  0     0  0
 29 31  1  0     0  0
 30 32  1  0     0  0
 34 36  1  0     0  0
 35 37  1  0     0  0
M  END
> <standard_type>
pIC50

> <# Confs.>
25

> <canonical_smiles>
CN1CCN(C2=CC=C(C(NC3=NNC4=C3CN(C(NC5=C(CC)C=CC=C5CC)=O)C4)=O)C=C2)CC1

> <standard_relation>
=

> <Publication_ID>
nan

> <predicted_activity_value>
6.795880017344075

> <actual_activity_value>
6.8696662315049934

> <Compound>
36

> <standard_units>
nM

> hash
16611291984064295962

$$$$
36_
XXILIB    08252103423D 0   0.00000     0.00000

 37 41  0     1  0            999 V2000
    2.0582   -0.0000    1.0406 O   0  0  0  0  0  2           0  0  0
   -2.0037    0.0078   -3.5910 O   0  0  0  0  0  2           0  0  0
   -3.4508    0.0276    0.9895 N   0  0  0  0  0  3           0  0  0
   -4.3014    0.0297   -0.0655 N   0  0  0  0  0  3           0  0  0
   -5.9535    0.0776   -8.6042 N   0  0  1  0  0  3           0  0  0
   -4.0121    0.0228   -2.4422 N   0  0  0  0  0  3           0  0  0
    1.9588   -0.0029   -1.2578 N   0  0  0  0  0  3           0  0  0
    0.0000    0.0000    0.0000 N   0  0  1  0  0  3           0  0  0
   -8.2907    0.8556  -10.0160 N   0  0  1  0  0  3           0  0  0
   -3.4994    0.0224   -1.1529 C   0  0  0  0  0  4           0  0  0
   -2.1655    0.0140    0.5947 C   0  0  0  0  0  4           0  0  0
   -5.3036    0.0561   -7.3865 C   0  0  0  0  0  4           0  0  0
    3.3476   -0.0062   -1.5088 C   0  0  0  0  0  4           0  0  0
   -2.1508    0.0132   -0.7651 C   0  0  0  0  0  4           0  0  0
    4.2351    1.0118   -1.0721 C   0  0  0  0  0  4           0  0  0
    3.8655   -1.1087   -2.2459 C   0  0  0  0  0  4           0  0  0
   -3.9646    0.0171   -4.8679 C   0  0  0  0  0  4           0  0  0
   -4.0071    0.5789   -7.2280 C   0  0  0  0  0  4           0  0  0
   -5.9018   -0.4896   -6.2357 C   0  0  0  0  0  4           0  0  0
    5.6093    0.8907   -1.3672 C   0  0  0  0  0  4           0  0  0
    5.2430   -1.1848   -2.5151 C   0  0  0  0  0  4           0  0  0
   -3.3455    0.5634   -5.9933 C   0  0  0  0  0  4           0  0  0
   -5.2496   -0.5110   -4.9953 C   0  0  0  0  0  4           0  0  0
    6.1086   -0.1922   -2.0804 C   0  0  0  0  0  4           0  0  0
    1.3943   -0.0000    0.0000 C   0  0  0  0  0  4           0  0  0
   -3.2328    0.0155   -3.5789 C   0  0  0  0  0  4           0  0  0
   -0.8541   -0.0000    1.2336 C   0  0  0  0  0  4           0  0  0
   -0.7781    0.0013   -1.2810 C   0  0  0  0  0  4           0  0  0
   -6.9308   -0.9418   -8.9882 C   0  0  0  0  0  4           0  0  0
   -5.8960    1.2291   -9.5057 C   0  0  0  0  0  4           0  0  0
   -8.3138   -0.2882   -9.0891 C   0  0  0  0  0  4           0  0  0
   -7.2919    1.8551   -9.6011 C   0  0  0  0  0  4           0  0  0
   -9.6168    1.4652  -10.1096 C   0  0  0  0  0  4           0  0  0
    3.8421    2.2327   -0.2929 C   0  0  0  0  0  4           0  0  0
    3.0098   -2.2317   -2.7547 C   0  0  0  0  0  4           0  0  0
    3.4803    3.4014   -1.1970 C   0  0  0  0  0  4           0  0  0
    2.4712   -1.9586   -4.1509 C   0  0  0  0  0  4           0  0  0
  1 25  2  0     0  0
  2 26  2  0     0  0
  3  4  1  0     0  0
  3 11  1  0     0  0
  4 10  2  0     0  0
  5 12  1  0     0  0
  5 29  1  0     0  0
  5 30  1  0     0  0
  6 10  1  0     0  0
  6 26  1  0     0  0
  7 13  1  0     0  0
  7 25  1  0     0  0
  8 25  1  0     0  0
  8 27  1  0     0  0
  8 28  1  0     0  0
  9 31  1  0     0  0
  9 32  1  0     0  0
  9 33  1  0     0  0
 10 14  1  0     0  0
 11 14  2  0     0  0
 11 27  1  0     0  0
 12 18  2  0     0  0
 12 19  1  0     0  0
 13 15  1  0     0  0
 13 16  2  0     0  0
 14 28  1  0     0  0
 15 20  2  0     0  0
 15 34  1  0     0  0
 16 21  1  0     0  0
 16 35  1  0     0  0
 17 22  2  0     0  0
 17 23  1  0     0  0
 17 26  1  0     0  0
 18 22  1  0     0  0
 19 23  2  0     0  0
 20 24  1  0     0  0
 21 24  2  0     0  0
 29 31  1  0     0  0
 30 32  1  0     0  0
 34 36  1  0     0  0
 35 37  1  0     0  0
M  END
> <standard_type>
pIC50

> <# Confs.>
25

> <canonical_smiles>
CN1CCN(C2=CC=C(C(NC3=NNC4=C3CN(C(NC5=C(CC)C=CC=C5CC)=O)C4)=O)C=C2)CC1

> <standard_relation>
=

> <Publication_ID>
nan

> <predicted_activity_value>
6.795880017344075

> <actual_activity_value>
6.8696662315049934

> <Compound>
36

> <standard_units>
nM

> hash
16611291984064295962

$$$$
36_
XXILIB    08252103423D 0   0.00000     0.00000

 37 41  0     1  0            999 V2000
    2.0582    0.0000    1.0406 O   0  0  0  0  0  2           0  0  0
   -2.0037    0.0078   -3.5910 O   0  0  0  0  0  2           0  0  0
   -3.4508    0.0276    0.9895 N   0  0  0  0  0  3           0  0  0
   -4.3014    0.0297   -0.0655 N   0  0  0  0  0  3           0  0  0
   -5.9554   -0.0383   -8.6033 N   0  0  1  0  0  3           0  0  0
   -4.0121    0.0228   -2.4422 N   0  0  0  0  0  3           0  0  0
    1.9588   -0.0029   -1.2578 N   0  0  0  0  0  3           0  0  0
    0.0000    0.0000    0.0000 N   0  0  1  0  0  3           0  0  0
   -7.2679    1.5006  -10.5958 N   0  0  1  0  0  3           0  0  0
   -3.4994    0.0224   -1.1529 C   0  0  0  0  0  4           0  0  0
   -2.1655    0.0140    0.5947 C   0  0  0  0  0  4           0  0  0
   -5.3067   -0.0225   -7.3849 C   0  0  0  0  0  4           0  0  0
    3.3476   -0.0062   -1.5088 C   0  0  0  0  0  4           0  0  0
   -2.1508    0.0132   -0.7651 C   0  0  0  0  0  4           0  0  0
    4.2308   -1.0268   -1.0693 C   0  0  0  0  0  4           0  0  0
    3.8699    1.0913   -2.2503 C   0  0  0  0  0  4           0  0  0
   -3.9646    0.0171   -4.8679 C   0  0  0  0  0  4           0  0  0
   -4.0185   -0.5644   -7.2230 C   0  0  0  0  0  4           0  0  0
   -5.8975    0.5370   -6.2369 C   0  0  0  0  0  4           0  0  0
    5.5996   -0.9313   -1.3969 C   0  0  0  0  0  4           0  0  0
    5.2418    1.1418   -2.5521 C   0  0  0  0  0  4           0  0  0
   -3.3545   -0.5465   -5.9897 C   0  0  0  0  0  4           0  0  0
   -5.2431    0.5603   -4.9977 C   0  0  0  0  0  4           0  0  0
    6.1008    0.1390   -2.1277 C   0  0  0  0  0  4           0  0  0
    1.3943   -0.0000   -0.0000 C   0  0  0  0  0  4           0  0  0
   -3.2328    0.0155   -3.5789 C   0  0  0  0  0  4           0  0  0
   -0.8541   -0.0000    1.2336 C   0  0  0  0  0  4           0  0  0
   -0.7781    0.0013   -1.2810 C   0  0  0  0  0  4           0  0  0
   -7.4133   -0.1029   -8.7132 C   0  0  0  0  0  4           0  0  0
   -5.2663    0.2384   -9.8644 C   0  0  0  0  0  4           0  0  0
   -7.9234    1.2144   -9.3088 C   0  0  0  0  0  4           0  0  0
   -5.8037    1.5507  -10.4463 C   0  0  0  0  0  4           0  0  0
   -7.7685    2.7549  -11.1572 C   0  0  0  0  0  4           0  0  0
    3.8341   -2.2389   -0.2784 C   0  0  0  0  0  4           0  0  0
    3.0203    2.2208   -2.7549 C   0  0  0  0  0  4           0  0  0
    3.4592   -3.4121   -1.1714 C   0  0  0  0  0  4           0  0  0
    2.9176    3.3581   -1.7498 C   0  0  0  0  0  4           0  0  0
  1 25  2  0     0  0
  2 26  2  0     0  0
  3  4  1  0     0  0
  3 11  1  0     0  0
  4 10  2  0     0  0
  5 12  1  0     0  0
  5 29  1  0     0  0
  5 30  1  0     0  0
  6 10  1  0     0  0
  6 26  1  0     0  0
  7 13  1  0     0  0
  7 25  1  0     0  0
  8 25  1  0     0  0
  8 27  1  0     0  0
  8 28  1  0     0  0
  9 31  1  0     0  0
  9 32  1  0     0  0
  9 33  1  0     0  0
 10 14  1  0     0  0
 11 14  2  0     0  0
 11 27  1  0     0  0
 12 18  2  0     0  0
 12 19  1  0     0  0
 13 15  1  0     0  0
 13 16  2  0     0  0
 14 28  1  0     0  0
 15 20  2  0     0  0
 15 34  1  0     0  0
 16 21  1  0     0  0
 16 35  1  0     0  0
 17 22  2  0     0  0
 17 23  1  0     0  0
 17 26  1  0     0  0
 18 22  1  0     0  0
 19 23  2  0     0  0
 20 24  1  0     0  0
 21 24  2  0     0  0
 29 31  1  0     0  0
 30 32  1  0     0  0
 34 36  1  0     0  0
 35 37  1  0     0  0
M  END
> <standard_type>
pIC50

> <# Confs.>
25

> <canonical_smiles>
CN1CCN(C2=CC=C(C(NC3=NNC4=C3CN(C(NC5=C(CC)C=CC=C5CC)=O)C4)=O)C=C2)CC1

> <standard_relation>
=

> <Publication_ID>
nan

> <predicted_activity_value>
6.795880017344075

> <actual_activity_value>
6.8696662315049934

> <Compound>
36

> <standard_units>
nM

> hash
16611291984064295962

$$$$
36_
XXILIB    08252103423D 0   0.00000     0.00000

 37 41  0     1  0            999 V2000
    2.0582   -0.0000    1.0406 O   0  0  0  0  0  2           0  0  0
   -2.0037    0.0078   -3.5910 O   0  0  0  0  0  2           0  0  0
   -3.4508    0.0276    0.9895 N   0  0  0  0  0  3           0  0  0
   -4.3014    0.0297   -0.0655 N   0  0  0  0  0  3           0  0  0
   -5.9554   -0.0383   -8.6033 N   0  0  1  0  0  3           0  0  0
   -4.0121    0.0228   -2.4422 N   0  0  0  0  0  3           0  0  0
    1.9588   -0.0029   -1.2578 N   0  0  0  0  0  3           0  0  0
    0.0000    0.0000    0.0000 N   0  0  1  0  0  3           0  0  0
   -7.2679    1.5006  -10.5958 N   0  0  1  0  0  3           0  0  0
   -3.4994    0.0224   -1.1529 C   0  0  0  0  0  4           0  0  0
   -2.1655    0.0140    0.5947 C   0  0  0  0  0  4           0  0  0
   -5.3067   -0.0225   -7.3849 C   0  0  0  0  0  4           0  0  0
    3.3476   -0.0062   -1.5088 C   0  0  0  0  0  4           0  0  0
   -2.1508    0.0132   -0.7651 C   0  0  0  0  0  4           0  0  0
    4.2351    1.0118   -1.0721 C   0  0  0  0  0  4           0  0  0
    3.8655   -1.1087   -2.2459 C   0  0  0  0  0  4           0  0  0
   -3.9646    0.0171   -4.8679 C   0  0  0  0  0  4           0  0  0
   -4.0185   -0.5644   -7.2230 C   0  0  0  0  0  4           0  0  0
   -5.8975    0.5370   -6.2369 C   0  0  0  0  0  4           0  0  0
    5.6093    0.8907   -1.3672 C   0  0  0  0  0  4           0  0  0
    5.2430   -1.1848   -2.5151 C   0  0  0  0  0  4           0  0  0
   -3.3545   -0.5465   -5.9897 C   0  0  0  0  0  4           0  0  0
   -5.2431    0.5603   -4.9977 C   0  0  0  0  0  4           0  0  0
    6.1086   -0.1922   -2.0804 C   0  0  0  0  0  4           0  0  0
    1.3943   -0.0000    0.0000 C   0  0  0  0  0  4           0  0  0
   -3.2328    0.0155   -3.5789 C   0  0  0  0  0  4           0  0  0
   -0.8541   -0.0000    1.2336 C   0  0  0  0  0  4           0  0  0
   -0.7781    0.0013   -1.2810 C   0  0  0  0  0  4           0  0  0
   -7.4133   -0.1029   -8.7132 C   0  0  0  0  0  4           0  0  0
   -5.2663    0.2384   -9.8644 C   0  0  0  0  0  4           0  0  0
   -7.9234    1.2144   -9.3088 C   0  0  0  0  0  4           0  0  0
   -5.8037    1.5507  -10.4463 C   0  0  0  0  0  4           0  0  0
   -7.7685    2.7549  -11.1572 C   0  0  0  0  0  4           0  0  0
    3.8421    2.2327   -0.2929 C   0  0  0  0  0  4           0  0  0
    3.0098   -2.2317   -2.7547 C   0  0  0  0  0  4           0  0  0
    3.4803    3.4014   -1.1970 C   0  0  0  0  0  4           0  0  0
    2.8915   -3.3671   -1.7490 C   0  0  0  0  0  4           0  0  0
  1 25  2  0     0  0
  2 26  2  0     0  0
  3  4  1  0     0  0
  3 11  1  0     0  0
  4 10  2  0     0  0
  5 12  1  0     0  0
  5 29  1  0     0  0
  5 30  1  0     0  0
  6 10  1  0     0  0
  6 26  1  0     0  0
  7 13  1  0     0  0
  7 25  1  0     0  0
  8 25  1  0     0  0
  8 27  1  0     0  0
  8 28  1  0     0  0
  9 31  1  0     0  0
  9 32  1  0     0  0
  9 33  1  0     0  0
 10 14  1  0     0  0
 11 14  2  0     0  0
 11 27  1  0     0  0
 12 18  2  0     0  0
 12 19  1  0     0  0
 13 15  1  0     0  0
 13 16  2  0     0  0
 14 28  1  0     0  0
 15 20  2  0     0  0
 15 34  1  0     0  0
 16 21  1  0     0  0
 16 35  1  0     0  0
 17 22  2  0     0  0
 17 23  1  0     0  0
 17 26  1  0     0  0
 18 22  1  0     0  0
 19 23  2  0     0  0
 20 24  1  0     0  0
 21 24  2  0     0  0
 29 31  1  0     0  0
 30 32  1  0     0  0
 34 36  1  0     0  0
 35 37  1  0     0  0
M  END
> <standard_type>
pIC50

> <# Confs.>
25

> <canonical_smiles>
CN1CCN(C2=CC=C(C(NC3=NNC4=C3CN(C(NC5=C(CC)C=CC=C5CC)=O)C4)=O)C=C2)CC1

> <standard_relation>
=

> <Publication_ID>
nan

> <predicted_activity_value>
6.795880017344075

> <actual_activity_value>
6.8696662315049934

> <Compound>
36

> <standard_units>
nM

> hash
16611291984064295962

$$$$
36_
XXILIB    08252103423D 0   0.00000     0.00000

 37 41  0     1  0            999 V2000
    2.0582    0.0000    1.0406 O   0  0  0  0  0  2           0  0  0
   -2.0037    0.0078   -3.5910 O   0  0  0  0  0  2           0  0  0
   -3.4508    0.0276    0.9895 N   0  0  0  0  0  3           0  0  0
   -4.3014    0.0297   -0.0655 N   0  0  0  0  0  3           0  0  0
   -5.9535    0.0776   -8.6042 N   0  0  1  0  0  3           0  0  0
   -4.0121    0.0228   -2.4422 N   0  0  0  0  0  3           0  0  0
    1.9588   -0.0029   -1.2578 N   0  0  0  0  0  3           0  0  0
    0.0000    0.0000    0.0000 N   0  0  1  0  0  3           0  0  0
   -7.3844   -0.1646  -11.0614 N   0  0  1  0  0  3           0  0  0
   -3.4994    0.0224   -1.1529 C   0  0  0  0  0  4           0  0  0
   -2.1655    0.0140    0.5947 C   0  0  0  0  0  4           0  0  0
   -5.3036    0.0561   -7.3865 C   0  0  0  0  0  4           0  0  0
    3.2065    0.5762   -1.5734 C   0  0  0  0  0  4           0  0  0
   -2.1508    0.0132   -0.7651 C   0  0  0  0  0  4           0  0  0
    3.7520    1.7009   -0.9009 C   0  0  0  0  0  4           0  0  0
    3.9439   -0.0228   -2.6339 C   0  0  0  0  0  4           0  0  0
   -3.9646    0.0171   -4.8679 C   0  0  0  0  0  4           0  0  0
   -4.0071    0.5789   -7.2280 C   0  0  0  0  0  4           0  0  0
   -5.9018   -0.4896   -6.2357 C   0  0  0  0  0  4           0  0  0
    5.0192    2.1810   -1.2930 C   0  0  0  0  0  4           0  0  0
    5.2030    0.4919   -2.9881 C   0  0  0  0  0  4           0  0  0
   -3.3455    0.5634   -5.9933 C   0  0  0  0  0  4           0  0  0
   -5.2496   -0.5110   -4.9953 C   0  0  0  0  0  4           0  0  0
    5.7365    1.5864   -2.3239 C   0  0  0  0  0  4           0  0  0
    1.3943    0.0000   -0.0000 C   0  0  0  0  0  4           0  0  0
   -3.2328    0.0155   -3.5789 C   0  0  0  0  0  4           0  0  0
   -0.8541   -0.0000    1.2336 C   0  0  0  0  0  4           0  0  0
   -0.7781    0.0013   -1.2810 C   0  0  0  0  0  4           0  0  0
   -5.3457   -0.6194   -9.7431 C   0  0  0  0  0  4           0  0  0
   -7.4119    0.2339   -8.6253 C   0  0  0  0  0  4           0  0  0
   -5.9181   -0.1167  -11.0699 C   0  0  0  0  0  4           0  0  0
   -7.8979    0.7046   -9.9970 C   0  0  0  0  0  4           0  0  0
   -7.9215    0.2404  -12.3599 C   0  0  0  0  0  4           0  0  0
    3.0967    2.4409    0.2283 C   0  0  0  0  0  4           0  0  0
    3.4521   -1.2105   -3.4083 C   0  0  0  0  0  4           0  0  0
    3.1808    3.9498    0.0539 C   0  0  0  0  0  4           0  0  0
    2.6367   -0.8061   -4.6272 C   0  0  0  0  0  4           0  0  0
  1 25  2  0     0  0
  2 26  2  0     0  0
  3  4  1  0     0  0
  3 11  1  0     0  0
  4 10  2  0     0  0
  5 12  1  0     0  0
  5 29  1  0     0  0
  5 30  1  0     0  0
  6 10  1  0     0  0
  6 26  1  0     0  0
  7 13  1  0     0  0
  7 25  1  0     0  0
  8 25  1  0     0  0
  8 27  1  0     0  0
  8 28  1  0     0  0
  9 31  1  0     0  0
  9 32  1  0     0  0
  9 33  1  0     0  0
 10 14  1  0     0  0
 11 14  2  0     0  0
 11 27  1  0     0  0
 12 18  2  0     0  0
 12 19  1  0     0  0
 13 15  1  0     0  0
 13 16  2  0     0  0
 14 28  1  0     0  0
 15 20  2  0     0  0
 15 34  1  0     0  0
 16 21  1  0     0  0
 16 35  1  0     0  0
 17 22  2  0     0  0
 17 23  1  0     0  0
 17 26  1  0     0  0
 18 22  1  0     0  0
 19 23  2  0     0  0
 20 24  1  0     0  0
 21 24  2  0     0  0
 29 31  1  0     0  0
 30 32  1  0     0  0
 34 36  1  0     0  0
 35 37  1  0     0  0
M  END
> <standard_type>
pIC50

> <# Confs.>
25

> <canonical_smiles>
CN1CCN(C2=CC=C(C(NC3=NNC4=C3CN(C(NC5=C(CC)C=CC=C5CC)=O)C4)=O)C=C2)CC1

> <standard_relation>
=

> <Publication_ID>
nan

> <predicted_activity_value>
6.795880017344075

> <actual_activity_value>
6.8696662315049934

> <Compound>
36

> <standard_units>
nM

> hash
16611291984064295962

$$$$
36_
XXILIB    08252103423D 0   0.00000     0.00000

 37 41  0     1  0            999 V2000
    2.0582    0.0000    1.0406 O   0  0  0  0  0  2           0  0  0
   -2.0037    0.0078   -3.5910 O   0  0  0  0  0  2           0  0  0
   -3.4508    0.0276    0.9895 N   0  0  0  0  0  3           0  0  0
   -4.3014    0.0297   -0.0655 N   0  0  0  0  0  3           0  0  0
   -5.9554   -0.0383   -8.6033 N   0  0  1  0  0  3           0  0  0
   -4.0121    0.0228   -2.4422 N   0  0  0  0  0  3           0  0  0
    1.9588   -0.0029   -1.2578 N   0  0  0  0  0  3           0  0  0
    0.0000    0.0000    0.0000 N   0  0  1  0  0  3           0  0  0
   -7.5476   -0.1540  -10.9688 N   0  0  1  0  0  3           0  0  0
   -3.4994    0.0224   -1.1529 C   0  0  0  0  0  4           0  0  0
   -2.1655    0.0140    0.5947 C   0  0  0  0  0  4           0  0  0
   -5.3067   -0.0225   -7.3849 C   0  0  0  0  0  4           0  0  0
    3.2065    0.5762   -1.5734 C   0  0  0  0  0  4           0  0  0
   -2.1508    0.0132   -0.7651 C   0  0  0  0  0  4           0  0  0
    3.7520    1.7009   -0.9009 C   0  0  0  0  0  4           0  0  0
    3.9439   -0.0228   -2.6339 C   0  0  0  0  0  4           0  0  0
   -3.9646    0.0171   -4.8679 C   0  0  0  0  0  4           0  0  0
   -4.0185   -0.5644   -7.2230 C   0  0  0  0  0  4           0  0  0
   -5.8975    0.5370   -6.2369 C   0  0  0  0  0  4           0  0  0
    5.0192    2.1810   -1.2930 C   0  0  0  0  0  4           0  0  0
    5.2030    0.4919   -2.9881 C   0  0  0  0  0  4           0  0  0
   -3.3545   -0.5465   -5.9897 C   0  0  0  0  0  4           0  0  0
   -5.2431    0.5603   -4.9977 C   0  0  0  0  0  4           0  0  0
    5.7365    1.5864   -2.3239 C   0  0  0  0  0  4           0  0  0
    1.3943    0.0000   -0.0000 C   0  0  0  0  0  4           0  0  0
   -3.2328    0.0155   -3.5789 C   0  0  0  0  0  4           0  0  0
   -0.8541   -0.0000    1.2336 C   0  0  0  0  0  4           0  0  0
   -0.7781    0.0013   -1.2810 C   0  0  0  0  0  4           0  0  0
   -6.2299   -1.3301   -9.2421 C   0  0  0  0  0  4           0  0  0
   -6.8529    1.0716   -8.9415 C   0  0  0  0  0  4           0  0  0
   -6.5062   -1.1612  -10.7373 C   0  0  0  0  0  4           0  0  0
   -7.1003    1.1430  -10.4492 C   0  0  0  0  0  4           0  0  0
   -7.8633   -0.0560  -12.3933 C   0  0  0  0  0  4           0  0  0
    3.0967    2.4409    0.2283 C   0  0  0  0  0  4           0  0  0
    3.4521   -1.2105   -3.4083 C   0  0  0  0  0  4           0  0  0
    3.1808    3.9498    0.0539 C   0  0  0  0  0  4           0  0  0
    2.6367   -0.8061   -4.6272 C   0  0  0  0  0  4           0  0  0
  1 25  2  0     0  0
  2 26  2  0     0  0
  3  4  1  0     0  0
  3 11  1  0     0  0
  4 10  2  0     0  0
  5 12  1  0     0  0
  5 29  1  0     0  0
  5 30  1  0     0  0
  6 10  1  0     0  0
  6 26  1  0     0  0
  7 13  1  0     0  0
  7 25  1  0     0  0
  8 25  1  0     0  0
  8 27  1  0     0  0
  8 28  1  0     0  0
  9 31  1  0     0  0
  9 32  1  0     0  0
  9 33  1  0     0  0
 10 14  1  0     0  0
 11 14  2  0     0  0
 11 27  1  0     0  0
 12 18  2  0     0  0
 12 19  1  0     0  0
 13 15  1  0     0  0
 13 16  2  0     0  0
 14 28  1  0     0  0
 15 20  2  0     0  0
 15 34  1  0     0  0
 16 21  1  0     0  0
 16 35  1  0     0  0
 17 22  2  0     0  0
 17 23  1  0     0  0
 17 26  1  0     0  0
 18 22  1  0     0  0
 19 23  2  0     0  0
 20 24  1  0     0  0
 21 24  2  0     0  0
 29 31  1  0     0  0
 30 32  1  0     0  0
 34 36  1  0     0  0
 35 37  1  0     0  0
M  END
> <standard_type>
pIC50

> <# Confs.>
25

> <canonical_smiles>
CN1CCN(C2=CC=C(C(NC3=NNC4=C3CN(C(NC5=C(CC)C=CC=C5CC)=O)C4)=O)C=C2)CC1

> <standard_relation>
=

> <Publication_ID>
nan

> <predicted_activity_value>
6.795880017344075

> <actual_activity_value>
6.8696662315049934

> <Compound>
36

> <standard_units>
nM

> hash
16611291984064295962

$$$$
36_
XXILIB    08252103423D 0   0.00000     0.00000

 37 41  0     1  0            999 V2000
    2.0582    0.0000    1.0406 O   0  0  0  0  0  2           0  0  0
   -2.0037    0.0078   -3.5910 O   0  0  0  0  0  2           0  0  0
   -3.4508    0.0276    0.9895 N   0  0  0  0  0  3           0  0  0
   -4.3014    0.0297   -0.0655 N   0  0  0  0  0  3           0  0  0
   -5.9554   -0.0383   -8.6033 N   0  0  1  0  0  3           0  0  0
   -4.0121    0.0228   -2.4422 N   0  0  0  0  0  3           0  0  0
    1.9588   -0.0029   -1.2578 N   0  0  0  0  0  3           0  0  0
    0.0000    0.0000    0.0000 N   0  0  1  0  0  3           0  0  0
   -7.5476   -0.1540  -10.9688 N   0  0  1  0  0  3           0  0  0
   -3.4994    0.0224   -1.1529 C   0  0  0  0  0  4           0  0  0
   -2.1655    0.0140    0.5947 C   0  0  0  0  0  4           0  0  0
   -5.3067   -0.0225   -7.3849 C   0  0  0  0  0  4           0  0  0
    3.2041   -0.5882   -1.5718 C   0  0  0  0  0  4           0  0  0
   -2.1508    0.0132   -0.7651 C   0  0  0  0  0  4           0  0  0
    3.7447   -1.7133   -0.8963 C   0  0  0  0  0  4           0  0  0
    3.9432    0.0038   -2.6350 C   0  0  0  0  0  4           0  0  0
   -3.9646    0.0171   -4.8679 C   0  0  0  0  0  4           0  0  0
   -4.0185   -0.5644   -7.2230 C   0  0  0  0  0  4           0  0  0
   -5.8975    0.5370   -6.2369 C   0  0  0  0  0  4           0  0  0
    4.9928   -2.2229   -1.3118 C   0  0  0  0  0  4           0  0  0
    5.1829   -0.5404   -3.0127 C   0  0  0  0  0  4           0  0  0
   -3.3545   -0.5465   -5.9897 C   0  0  0  0  0  4           0  0  0
   -5.2431    0.5603   -4.9977 C   0  0  0  0  0  4           0  0  0
    5.7049   -1.6445   -2.3554 C   0  0  0  0  0  4           0  0  0
    1.3943    0.0000   -0.0000 C   0  0  0  0  0  4           0  0  0
   -3.2328    0.0155   -3.5789 C   0  0  0  0  0  4           0  0  0
   -0.8541   -0.0000    1.2336 C   0  0  0  0  0  4           0  0  0
   -0.7781    0.0013   -1.2810 C   0  0  0  0  0  4           0  0  0
   -6.2299   -1.3301   -9.2421 C   0  0  0  0  0  4           0  0  0
   -6.8529    1.0716   -8.9415 C   0  0  0  0  0  4           0  0  0
   -6.5062   -1.1612  -10.7373 C   0  0  0  0  0  4           0  0  0
   -7.1003    1.1430  -10.4492 C   0  0  0  0  0  4           0  0  0
   -7.8633   -0.0560  -12.3933 C   0  0  0  0  0  4           0  0  0
    3.0908   -2.4415    0.2414 C   0  0  0  0  0  4           0  0  0
    3.4603    1.1966   -3.4071 C   0  0  0  0  0  4           0  0  0
    3.1616   -3.9520    0.0752 C   0  0  0  0  0  4           0  0  0
    2.6361    0.8008   -4.6230 C   0  0  0  0  0  4           0  0  0
  1 25  2  0     0  0
  2 26  2  0     0  0
  3  4  1  0     0  0
  3 11  1  0     0  0
  4 10  2  0     0  0
  5 12  1  0     0  0
  5 29  1  0     0  0
  5 30  1  0     0  0
  6 10  1  0     0  0
  6 26  1  0     0  0
  7 13  1  0     0  0
  7 25  1  0     0  0
  8 25  1  0     0  0
  8 27  1  0     0  0
  8 28  1  0     0  0
  9 31  1  0     0  0
  9 32  1  0     0  0
  9 33  1  0     0  0
 10 14  1  0     0  0
 11 14  2  0     0  0
 11 27  1  0     0  0
 12 18  2  0     0  0
 12 19  1  0     0  0
 13 15  1  0     0  0
 13 16  2  0     0  0
 14 28  1  0     0  0
 15 20  2  0     0  0
 15 34  1  0     0  0
 16 21  1  0     0  0
 16 35  1  0     0  0
 17 22  2  0     0  0
 17 23  1  0     0  0
 17 26  1  0     0  0
 18 22  1  0     0  0
 19 23  2  0     0  0
 20 24  1  0     0  0
 21 24  2  0     0  0
 29 31  1  0     0  0
 30 32  1  0     0  0
 34 36  1  0     0  0
 35 37  1  0     0  0
M  END
> <standard_type>
pIC50

> <# Confs.>
25

> <canonical_smiles>
CN1CCN(C2=CC=C(C(NC3=NNC4=C3CN(C(NC5=C(CC)C=CC=C5CC)=O)C4)=O)C=C2)CC1

> <standard_relation>
=

> <Publication_ID>
nan

> <predicted_activity_value>
6.795880017344075

> <actual_activity_value>
6.8696662315049934

> <Compound>
36

> <standard_units>
nM

> hash
16611291984064295962

$$$$
36_
XXILIB    08252103423D 0   0.00000     0.00000

 37 41  0     1  0            999 V2000
    2.0582    0.0000    1.0406 O   0  0  0  0  0  2           0  0  0
   -2.0037    0.0078   -3.5910 O   0  0  0  0  0  2           0  0  0
   -3.4508    0.0276    0.9895 N   0  0  0  0  0  3           0  0  0
   -4.3014    0.0297   -0.0655 N   0  0  0  0  0  3           0  0  0
   -5.9535    0.0776   -8.6042 N   0  0  1  0  0  3           0  0  0
   -4.0121    0.0228   -2.4422 N   0  0  0  0  0  3           0  0  0
    1.9588   -0.0029   -1.2578 N   0  0  0  0  0  3           0  0  0
    0.0000    0.0000    0.0000 N   0  0  1  0  0  3           0  0  0
   -7.3844   -0.1646  -11.0614 N   0  0  1  0  0  3           0  0  0
   -3.4994    0.0224   -1.1529 C   0  0  0  0  0  4           0  0  0
   -2.1655    0.0140    0.5947 C   0  0  0  0  0  4           0  0  0
   -5.3036    0.0561   -7.3865 C   0  0  0  0  0  4           0  0  0
    3.2041   -0.5882   -1.5718 C   0  0  0  0  0  4           0  0  0
   -2.1508    0.0132   -0.7651 C   0  0  0  0  0  4           0  0  0
    3.7447   -1.7133   -0.8963 C   0  0  0  0  0  4           0  0  0
    3.9432    0.0038   -2.6350 C   0  0  0  0  0  4           0  0  0
   -3.9646    0.0171   -4.8679 C   0  0  0  0  0  4           0  0  0
   -4.0071    0.5789   -7.2280 C   0  0  0  0  0  4           0  0  0
   -5.9018   -0.4896   -6.2357 C   0  0  0  0  0  4           0  0  0
    4.9928   -2.2229   -1.3118 C   0  0  0  0  0  4           0  0  0
    5.1829   -0.5404   -3.0127 C   0  0  0  0  0  4           0  0  0
   -3.3455    0.5634   -5.9933 C   0  0  0  0  0  4           0  0  0
   -5.2496   -0.5110   -4.9953 C   0  0  0  0  0  4           0  0  0
    5.7049   -1.6445   -2.3554 C   0  0  0  0  0  4           0  0  0
    1.3943    0.0000   -0.0000 C   0  0  0  0  0  4           0  0  0
   -3.2328    0.0155   -3.5789 C   0  0  0  0  0  4           0  0  0
   -0.8541   -0.0000    1.2336 C   0  0  0  0  0  4           0  0  0
   -0.7781    0.0013   -1.2810 C   0  0  0  0  0  4           0  0  0
   -5.3457   -0.6194   -9.7431 C   0  0  0  0  0  4           0  0  0
   -7.4119    0.2339   -8.6253 C   0  0  0  0  0  4           0  0  0
   -5.9181   -0.1167  -11.0699 C   0  0  0  0  0  4           0  0  0
   -7.8979    0.7046   -9.9970 C   0  0  0  0  0  4           0  0  0
   -7.9215    0.2404  -12.3599 C   0  0  0  0  0  4           0  0  0
    3.0908   -2.4415    0.2414 C   0  0  0  0  0  4           0  0  0
    3.4603    1.1966   -3.4071 C   0  0  0  0  0  4           0  0  0
    3.1616   -3.9520    0.0752 C   0  0  0  0  0  4           0  0  0
    2.6361    0.8008   -4.6230 C   0  0  0  0  0  4           0  0  0
  1 25  2  0     0  0
  2 26  2  0     0  0
  3  4  1  0     0  0
  3 11  1  0     0  0
  4 10  2  0     0  0
  5 12  1  0     0  0
  5 29  1  0     0  0
  5 30  1  0     0  0
  6 10  1  0     0  0
  6 26  1  0     0  0
  7 13  1  0     0  0
  7 25  1  0     0  0
  8 25  1  0     0  0
  8 27  1  0     0  0
  8 28  1  0     0  0
  9 31  1  0     0  0
  9 32  1  0     0  0
  9 33  1  0     0  0
 10 14  1  0     0  0
 11 14  2  0     0  0
 11 27  1  0     0  0
 12 18  2  0     0  0
 12 19  1  0     0  0
 13 15  1  0     0  0
 13 16  2  0     0  0
 14 28  1  0     0  0
 15 20  2  0     0  0
 15 34  1  0     0  0
 16 21  1  0     0  0
 16 35  1  0     0  0
 17 22  2  0     0  0
 17 23  1  0     0  0
 17 26  1  0     0  0
 18 22  1  0     0  0
 19 23  2  0     0  0
 20 24  1  0     0  0
 21 24  2  0     0  0
 29 31  1  0     0  0
 30 32  1  0     0  0
 34 36  1  0     0  0
 35 37  1  0     0  0
M  END
> <standard_type>
pIC50

> <# Confs.>
25

> <canonical_smiles>
CN1CCN(C2=CC=C(C(NC3=NNC4=C3CN(C(NC5=C(CC)C=CC=C5CC)=O)C4)=O)C=C2)CC1

> <standard_relation>
=

> <Publication_ID>
nan

> <predicted_activity_value>
6.795880017344075

> <actual_activity_value>
6.8696662315049934

> <Compound>
36

> <standard_units>
nM

> hash
16611291984064295962

$$$$
36_
XXILIB    08252103423D 0   0.00000     0.00000

 37 41  0     1  0            999 V2000
    2.0582   -0.0000    1.0406 O   0  0  0  0  0  2           0  0  0
   -2.0037    0.0078   -3.5910 O   0  0  0  0  0  2           0  0  0
   -3.4508    0.0276    0.9895 N   0  0  0  0  0  3           0  0  0
   -4.3014    0.0297   -0.0655 N   0  0  0  0  0  3           0  0  0
   -5.9554   -0.0383   -8.6033 N   0  0  1  0  0  3           0  0  0
   -4.0121    0.0228   -2.4422 N   0  0  0  0  0  3           0  0  0
    1.9588   -0.0029   -1.2578 N   0  0  0  0  0  3           0  0  0
    0.0000    0.0000    0.0000 N   0  0  1  0  0  3           0  0  0
   -7.2136   -0.3643  -11.1439 N   0  0  1  0  0  3           0  0  0
   -3.4994    0.0224   -1.1529 C   0  0  0  0  0  4           0  0  0
   -2.1655    0.0140    0.5947 C   0  0  0  0  0  4           0  0  0
   -5.3067   -0.0225   -7.3849 C   0  0  0  0  0  4           0  0  0
    3.2041   -0.5882   -1.5718 C   0  0  0  0  0  4           0  0  0
   -2.1508    0.0132   -0.7651 C   0  0  0  0  0  4           0  0  0
    3.5008   -1.9649   -1.3947 C   0  0  0  0  0  4           0  0  0
    4.2065    0.2756   -2.0973 C   0  0  0  0  0  4           0  0  0
   -3.9646    0.0171   -4.8679 C   0  0  0  0  0  4           0  0  0
   -4.0185   -0.5644   -7.2230 C   0  0  0  0  0  4           0  0  0
   -5.8975    0.5370   -6.2369 C   0  0  0  0  0  4           0  0  0
    4.7773   -2.4397   -1.7624 C   0  0  0  0  0  4           0  0  0
    5.4638   -0.2450   -2.4492 C   0  0  0  0  0  4           0  0  0
   -3.3545   -0.5465   -5.9897 C   0  0  0  0  0  4           0  0  0
   -5.2431    0.5603   -4.9977 C   0  0  0  0  0  4           0  0  0
    5.7481   -1.5921   -2.2820 C   0  0  0  0  0  4           0  0  0
    1.3943    0.0000    0.0000 C   0  0  0  0  0  4           0  0  0
   -3.2328    0.0155   -3.5789 C   0  0  0  0  0  4           0  0  0
   -0.8541   -0.0000    1.2336 C   0  0  0  0  0  4           0  0  0
   -0.7781    0.0013   -1.2810 C   0  0  0  0  0  4           0  0  0
   -5.1549    0.0116   -9.8318 C   0  0  0  0  0  4           0  0  0
   -7.2714   -0.6796   -8.6961 C   0  0  0  0  0  4           0  0  0
   -6.0014    0.4539  -11.0270 C   0  0  0  0  0  4           0  0  0
   -8.0312   -0.2059   -9.9362 C   0  0  0  0  0  4           0  0  0
   -7.9763    0.0105  -12.3340 C   0  0  0  0  0  4           0  0  0
    2.5552   -2.9953   -0.8506 C   0  0  0  0  0  4           0  0  0
    3.9925    1.7446   -2.3176 C   0  0  0  0  0  4           0  0  0
    1.7327   -3.6577   -1.9456 C   0  0  0  0  0  4           0  0  0
    3.4523    2.0461   -3.7073 C   0  0  0  0  0  4           0  0  0
  1 25  2  0     0  0
  2 26  2  0     0  0
  3  4  1  0     0  0
  3 11  1  0     0  0
  4 10  2  0     0  0
  5 12  1  0     0  0
  5 29  1  0     0  0
  5 30  1  0     0  0
  6 10  1  0     0  0
  6 26  1  0     0  0
  7 13  1  0     0  0
  7 25  1  0     0  0
  8 25  1  0     0  0
  8 27  1  0     0  0
  8 28  1  0     0  0
  9 31  1  0     0  0
  9 32  1  0     0  0
  9 33  1  0     0  0
 10 14  1  0     0  0
 11 14  2  0     0  0
 11 27  1  0     0  0
 12 18  2  0     0  0
 12 19  1  0     0  0
 13 15  1  0     0  0
 13 16  2  0     0  0
 14 28  1  0     0  0
 15 20  2  0     0  0
 15 34  1  0     0  0
 16 21  1  0     0  0
 16 35  1  0     0  0
 17 22  2  0     0  0
 17 23  1  0     0  0
 17 26  1  0     0  0
 18 22  1  0     0  0
 19 23  2  0     0  0
 20 24  1  0     0  0
 21 24  2  0     0  0
 29 31  1  0     0  0
 30 32  1  0     0  0
 34 36  1  0     0  0
 35 37  1  0     0  0
M  END
> <standard_type>
pIC50

> <# Confs.>
25

> <canonical_smiles>
CN1CCN(C2=CC=C(C(NC3=NNC4=C3CN(C(NC5=C(CC)C=CC=C5CC)=O)C4)=O)C=C2)CC1

> <standard_relation>
=

> <Publication_ID>
nan

> <predicted_activity_value>
6.795880017344075

> <actual_activity_value>
6.8696662315049934

> <Compound>
36

> <standard_units>
nM

> hash
16611291984064295962

$$$$
36_
XXILIB    08252103423D 0   0.00000     0.00000

 37 41  0     1  0            999 V2000
    2.0582    0.0000    1.0406 O   0  0  0  0  0  2           0  0  0
   -2.0037    0.0078   -3.5910 O   0  0  0  0  0  2           0  0  0
   -3.4508    0.0276    0.9895 N   0  0  0  0  0  3           0  0  0
   -4.3014    0.0297   -0.0655 N   0  0  0  0  0  3           0  0  0
   -5.9535    0.0776   -8.6042 N   0  0  1  0  0  3           0  0  0
   -4.0121    0.0228   -2.4422 N   0  0  0  0  0  3           0  0  0
    1.9588   -0.0029   -1.2578 N   0  0  0  0  0  3           0  0  0
    0.0000    0.0000    0.0000 N   0  0  1  0  0  3           0  0  0
   -7.0374    0.0167  -11.2434 N   0  0  1  0  0  3           0  0  0
   -3.4994    0.0224   -1.1529 C   0  0  0  0  0  4           0  0  0
   -2.1655    0.0140    0.5947 C   0  0  0  0  0  4           0  0  0
   -5.3036    0.0561   -7.3865 C   0  0  0  0  0  4           0  0  0
    3.2065    0.5762   -1.5734 C   0  0  0  0  0  4           0  0  0
   -2.1508    0.0132   -0.7651 C   0  0  0  0  0  4           0  0  0
    3.5092    1.9521   -1.4000 C   0  0  0  0  0  4           0  0  0
    4.2058   -0.2935   -2.0951 C   0  0  0  0  0  4           0  0  0
   -3.9646    0.0171   -4.8679 C   0  0  0  0  0  4           0  0  0
   -4.0071    0.5789   -7.2280 C   0  0  0  0  0  4           0  0  0
   -5.9018   -0.4896   -6.2357 C   0  0  0  0  0  4           0  0  0
    4.7998    2.4134   -1.7339 C   0  0  0  0  0  4           0  0  0
    5.4776    0.2136   -2.4130 C   0  0  0  0  0  4           0  0  0
   -3.3455    0.5634   -5.9933 C   0  0  0  0  0  4           0  0  0
   -5.2496   -0.5110   -4.9953 C   0  0  0  0  0  4           0  0  0
    5.7725    1.5571   -2.2353 C   0  0  0  0  0  4           0  0  0
    1.3943    0.0000    0.0000 C   0  0  0  0  0  4           0  0  0
   -3.2328    0.0155   -3.5789 C   0  0  0  0  0  4           0  0  0
   -0.8541   -0.0000    1.2336 C   0  0  0  0  0  4           0  0  0
   -0.7781    0.0013   -1.2810 C   0  0  0  0  0  4           0  0  0
   -5.6540    1.1611   -9.5470 C   0  0  0  0  0  4           0  0  0
   -6.4243   -1.1878   -9.1777 C   0  0  0  0  0  4           0  0  0
   -6.7583    1.3035  -10.5962 C   0  0  0  0  0  4           0  0  0
   -7.4989   -0.9480  -10.2393 C   0  0  0  0  0  4           0  0  0
   -8.0356    0.1763  -12.3001 C   0  0  0  0  0  4           0  0  0
    2.5647    2.9899   -0.8678 C   0  0  0  0  0  4           0  0  0
    3.9829   -1.7606   -2.3191 C   0  0  0  0  0  4           0  0  0
    1.7543    3.6517   -1.9721 C   0  0  0  0  0  4           0  0  0
    3.4481   -2.0559   -3.7123 C   0  0  0  0  0  4           0  0  0
  1 25  2  0     0  0
  2 26  2  0     0  0
  3  4  1  0     0  0
  3 11  1  0     0  0
  4 10  2  0     0  0
  5 12  1  0     0  0
  5 29  1  0     0  0
  5 30  1  0     0  0
  6 10  1  0     0  0
  6 26  1  0     0  0
  7 13  1  0     0  0
  7 25  1  0     0  0
  8 25  1  0     0  0
  8 27  1  0     0  0
  8 28  1  0     0  0
  9 31  1  0     0  0
  9 32  1  0     0  0
  9 33  1  0     0  0
 10 14  1  0     0  0
 11 14  2  0     0  0
 11 27  1  0     0  0
 12 18  2  0     0  0
 12 19  1  0     0  0
 13 15  1  0     0  0
 13 16  2  0     0  0
 14 28  1  0     0  0
 15 20  2  0     0  0
 15 34  1  0     0  0
 16 21  1  0     0  0
 16 35  1  0     0  0
 17 22  2  0     0  0
 17 23  1  0     0  0
 17 26  1  0     0  0
 18 22  1  0     0  0
 19 23  2  0     0  0
 20 24  1  0     0  0
 21 24  2  0     0  0
 29 31  1  0     0  0
 30 32  1  0     0  0
 34 36  1  0     0  0
 35 37  1  0     0  0
M  END
> <standard_type>
pIC50

> <# Confs.>
25

> <canonical_smiles>
CN1CCN(C2=CC=C(C(NC3=NNC4=C3CN(C(NC5=C(CC)C=CC=C5CC)=O)C4)=O)C=C2)CC1

> <standard_relation>
=

> <Publication_ID>
nan

> <predicted_activity_value>
6.795880017344075

> <actual_activity_value>
6.8696662315049934

> <Compound>
36

> <standard_units>
nM

> hash
16611291984064295962

$$$$
36_
XXILIB    08252103423D 0   0.00000     0.00000

 37 41  0     1  0            999 V2000
    2.0582   -0.0000    1.0406 O   0  0  0  0  0  2           0  0  0
   -2.0037    0.0078   -3.5910 O   0  0  0  0  0  2           0  0  0
   -3.4508    0.0276    0.9895 N   0  0  0  0  0  3           0  0  0
   -4.3014    0.0297   -0.0655 N   0  0  0  0  0  3           0  0  0
   -5.9535    0.0776   -8.6042 N   0  0  1  0  0  3           0  0  0
   -4.0121    0.0228   -2.4422 N   0  0  0  0  0  3           0  0  0
    1.9588   -0.0029   -1.2578 N   0  0  0  0  0  3           0  0  0
    0.0000    0.0000    0.0000 N   0  0  1  0  0  3           0  0  0
   -7.0374    0.0167  -11.2434 N   0  0  1  0  0  3           0  0  0
   -3.4994    0.0224   -1.1529 C   0  0  0  0  0  4           0  0  0
   -2.1655    0.0140    0.5947 C   0  0  0  0  0  4           0  0  0
   -5.3036    0.0561   -7.3865 C   0  0  0  0  0  4           0  0  0
    3.2041   -0.5882   -1.5718 C   0  0  0  0  0  4           0  0  0
   -2.1508    0.0132   -0.7651 C   0  0  0  0  0  4           0  0  0
    3.5008   -1.9649   -1.3947 C   0  0  0  0  0  4           0  0  0
    4.2065    0.2756   -2.0973 C   0  0  0  0  0  4           0  0  0
   -3.9646    0.0171   -4.8679 C   0  0  0  0  0  4           0  0  0
   -4.0071    0.5789   -7.2280 C   0  0  0  0  0  4           0  0  0
   -5.9018   -0.4896   -6.2357 C   0  0  0  0  0  4           0  0  0
    4.7773   -2.4397   -1.7624 C   0  0  0  0  0  4           0  0  0
    5.4638   -0.2450   -2.4492 C   0  0  0  0  0  4           0  0  0
   -3.3455    0.5634   -5.9933 C   0  0  0  0  0  4           0  0  0
   -5.2496   -0.5110   -4.9953 C   0  0  0  0  0  4           0  0  0
    5.7481   -1.5921   -2.2820 C   0  0  0  0  0  4           0  0  0
    1.3943    0.0000    0.0000 C   0  0  0  0  0  4           0  0  0
   -3.2328    0.0155   -3.5789 C   0  0  0  0  0  4           0  0  0
   -0.8541   -0.0000    1.2336 C   0  0  0  0  0  4           0  0  0
   -0.7781    0.0013   -1.2810 C   0  0  0  0  0  4           0  0  0
   -5.6540    1.1611   -9.5470 C   0  0  0  0  0  4           0  0  0
   -6.4243   -1.1878   -9.1777 C   0  0  0  0  0  4           0  0  0
   -6.7583    1.3035  -10.5962 C   0  0  0  0  0  4           0  0  0
   -7.4989   -0.9480  -10.2393 C   0  0  0  0  0  4           0  0  0
   -8.0356    0.1763  -12.3001 C   0  0  0  0  0  4           0  0  0
    2.5552   -2.9953   -0.8506 C   0  0  0  0  0  4           0  0  0
    3.9925    1.7446   -2.3176 C   0  0  0  0  0  4           0  0  0
    1.7327   -3.6577   -1.9456 C   0  0  0  0  0  4           0  0  0
    3.4523    2.0461   -3.7073 C   0  0  0  0  0  4           0  0  0
  1 25  2  0     0  0
  2 26  2  0     0  0
  3  4  1  0     0  0
  3 11  1  0     0  0
  4 10  2  0     0  0
  5 12  1  0     0  0
  5 29  1  0     0  0
  5 30  1  0     0  0
  6 10  1  0     0  0
  6 26  1  0     0  0
  7 13  1  0     0  0
  7 25  1  0     0  0
  8 25  1  0     0  0
  8 27  1  0     0  0
  8 28  1  0     0  0
  9 31  1  0     0  0
  9 32  1  0     0  0
  9 33  1  0     0  0
 10 14  1  0     0  0
 11 14  2  0     0  0
 11 27  1  0     0  0
 12 18  2  0     0  0
 12 19  1  0     0  0
 13 15  1  0     0  0
 13 16  2  0     0  0
 14 28  1  0     0  0
 15 20  2  0     0  0
 15 34  1  0     0  0
 16 21  1  0     0  0
 16 35  1  0     0  0
 17 22  2  0     0  0
 17 23  1  0     0  0
 17 26  1  0     0  0
 18 22  1  0     0  0
 19 23  2  0     0  0
 20 24  1  0     0  0
 21 24  2  0     0  0
 29 31  1  0     0  0
 30 32  1  0     0  0
 34 36  1  0     0  0
 35 37  1  0     0  0
M  END
> <standard_type>
pIC50

> <# Confs.>
25

> <canonical_smiles>
CN1CCN(C2=CC=C(C(NC3=NNC4=C3CN(C(NC5=C(CC)C=CC=C5CC)=O)C4)=O)C=C2)CC1

> <standard_relation>
=

> <Publication_ID>
nan

> <predicted_activity_value>
6.795880017344075

> <actual_activity_value>
6.8696662315049934

> <Compound>
36

> <standard_units>
nM

> hash
16611291984064295962

$$$$
36_
XXILIB    08252103423D 0   0.00000     0.00000

 37 41  0     1  0            999 V2000
    2.0582    0.0000    1.0406 O   0  0  0  0  0  2           0  0  0
   -2.0037    0.0078   -3.5910 O   0  0  0  0  0  2           0  0  0
   -3.4508    0.0276    0.9895 N   0  0  0  0  0  3           0  0  0
   -4.3014    0.0297   -0.0655 N   0  0  0  0  0  3           0  0  0
   -5.9554   -0.0383   -8.6033 N   0  0  1  0  0  3           0  0  0
   -4.0121    0.0228   -2.4422 N   0  0  0  0  0  3           0  0  0
    1.9588   -0.0029   -1.2578 N   0  0  0  0  0  3           0  0  0
    0.0000    0.0000    0.0000 N   0  0  1  0  0  3           0  0  0
   -7.2136   -0.3643  -11.1439 N   0  0  1  0  0  3           0  0  0
   -3.4994    0.0224   -1.1529 C   0  0  0  0  0  4           0  0  0
   -2.1655    0.0140    0.5947 C   0  0  0  0  0  4           0  0  0
   -5.3067   -0.0225   -7.3849 C   0  0  0  0  0  4           0  0  0
    3.2065    0.5762   -1.5734 C   0  0  0  0  0  4           0  0  0
   -2.1508    0.0132   -0.7651 C   0  0  0  0  0  4           0  0  0
    3.5092    1.9521   -1.4000 C   0  0  0  0  0  4           0  0  0
    4.2058   -0.2935   -2.0951 C   0  0  0  0  0  4           0  0  0
   -3.9646    0.0171   -4.8679 C   0  0  0  0  0  4           0  0  0
   -4.0185   -0.5644   -7.2230 C   0  0  0  0  0  4           0  0  0
   -5.8975    0.5370   -6.2369 C   0  0  0  0  0  4           0  0  0
    4.7998    2.4134   -1.7339 C   0  0  0  0  0  4           0  0  0
    5.4776    0.2136   -2.4130 C   0  0  0  0  0  4           0  0  0
   -3.3545   -0.5465   -5.9897 C   0  0  0  0  0  4           0  0  0
   -5.2431    0.5603   -4.9977 C   0  0  0  0  0  4           0  0  0
    5.7725    1.5571   -2.2353 C   0  0  0  0  0  4           0  0  0
    1.3943    0.0000    0.0000 C   0  0  0  0  0  4           0  0  0
   -3.2328    0.0155   -3.5789 C   0  0  0  0  0  4           0  0  0
   -0.8541   -0.0000    1.2336 C   0  0  0  0  0  4           0  0  0
   -0.7781    0.0013   -1.2810 C   0  0  0  0  0  4           0  0  0
   -5.1549    0.0116   -9.8318 C   0  0  0  0  0  4           0  0  0
   -7.2714   -0.6796   -8.6961 C   0  0  0  0  0  4           0  0  0
   -6.0014    0.4539  -11.0270 C   0  0  0  0  0  4           0  0  0
   -8.0312   -0.2059   -9.9362 C   0  0  0  0  0  4           0  0  0
   -7.9763    0.0105  -12.3340 C   0  0  0  0  0  4           0  0  0
    2.5647    2.9899   -0.8678 C   0  0  0  0  0  4           0  0  0
    3.9829   -1.7606   -2.3191 C   0  0  0  0  0  4           0  0  0
    1.7543    3.6517   -1.9721 C   0  0  0  0  0  4           0  0  0
    3.4481   -2.0559   -3.7123 C   0  0  0  0  0  4           0  0  0
  1 25  2  0     0  0
  2 26  2  0     0  0
  3  4  1  0     0  0
  3 11  1  0     0  0
  4 10  2  0     0  0
  5 12  1  0     0  0
  5 29  1  0     0  0
  5 30  1  0     0  0
  6 10  1  0     0  0
  6 26  1  0     0  0
  7 13  1  0     0  0
  7 25  1  0     0  0
  8 25  1  0     0  0
  8 27  1  0     0  0
  8 28  1  0     0  0
  9 31  1  0     0  0
  9 32  1  0     0  0
  9 33  1  0     0  0
 10 14  1  0     0  0
 11 14  2  0     0  0
 11 27  1  0     0  0
 12 18  2  0     0  0
 12 19  1  0     0  0
 13 15  1  0     0  0
 13 16  2  0     0  0
 14 28  1  0     0  0
 15 20  2  0     0  0
 15 34  1  0     0  0
 16 21  1  0     0  0
 16 35  1  0     0  0
 17 22  2  0     0  0
 17 23  1  0     0  0
 17 26  1  0     0  0
 18 22  1  0     0  0
 19 23  2  0     0  0
 20 24  1  0     0  0
 21 24  2  0     0  0
 29 31  1  0     0  0
 30 32  1  0     0  0
 34 36  1  0     0  0
 35 37  1  0     0  0
M  END
> <standard_type>
pIC50

> <# Confs.>
25

> <canonical_smiles>
CN1CCN(C2=CC=C(C(NC3=NNC4=C3CN(C(NC5=C(CC)C=CC=C5CC)=O)C4)=O)C=C2)CC1

> <standard_relation>
=

> <Publication_ID>
nan

> <predicted_activity_value>
6.795880017344075

> <actual_activity_value>
6.8696662315049934

> <Compound>
36

> <standard_units>
nM

> hash
16611291984064295962

$$$$
36_
XXILIB    08252103423D 0   0.00000     0.00000

 37 41  0     1  0            999 V2000
    2.0582    0.0000    1.0406 O   0  0  0  0  0  2           0  0  0
   -2.0037    0.0078   -3.5910 O   0  0  0  0  0  2           0  0  0
   -3.4508    0.0276    0.9895 N   0  0  0  0  0  3           0  0  0
   -4.3014    0.0297   -0.0655 N   0  0  0  0  0  3           0  0  0
   -5.9535    0.0776   -8.6042 N   0  0  1  0  0  3           0  0  0
   -4.0121    0.0228   -2.4422 N   0  0  0  0  0  3           0  0  0
    1.9588   -0.0029   -1.2578 N   0  0  0  0  0  3           0  0  0
    0.0000    0.0000    0.0000 N   0  0  1  0  0  3           0  0  0
   -7.3844   -0.1646  -11.0614 N   0  0  1  0  0  3           0  0  0
   -3.4994    0.0224   -1.1529 C   0  0  0  0  0  4           0  0  0
   -2.1655    0.0140    0.5947 C   0  0  0  0  0  4           0  0  0
   -5.3036    0.0561   -7.3865 C   0  0  0  0  0  4           0  0  0
    3.2065    0.5762   -1.5734 C   0  0  0  0  0  4           0  0  0
   -2.1508    0.0132   -0.7651 C   0  0  0  0  0  4           0  0  0
    3.5092    1.9521   -1.4000 C   0  0  0  0  0  4           0  0  0
    4.2058   -0.2935   -2.0951 C   0  0  0  0  0  4           0  0  0
   -3.9646    0.0171   -4.8679 C   0  0  0  0  0  4           0  0  0
   -4.0071    0.5789   -7.2280 C   0  0  0  0  0  4           0  0  0
   -5.9018   -0.4896   -6.2357 C   0  0  0  0  0  4           0  0  0
    4.7998    2.4134   -1.7339 C   0  0  0  0  0  4           0  0  0
    5.4776    0.2136   -2.4130 C   0  0  0  0  0  4           0  0  0
   -3.3455    0.5634   -5.9933 C   0  0  0  0  0  4           0  0  0
   -5.2496   -0.5110   -4.9953 C   0  0  0  0  0  4           0  0  0
    5.7725    1.5571   -2.2353 C   0  0  0  0  0  4           0  0  0
    1.3943    0.0000    0.0000 C   0  0  0  0  0  4           0  0  0
   -3.2328    0.0155   -3.5789 C   0  0  0  0  0  4           0  0  0
   -0.8541   -0.0000    1.2336 C   0  0  0  0  0  4           0  0  0
   -0.7781    0.0013   -1.2810 C   0  0  0  0  0  4           0  0  0
   -5.3457   -0.6194   -9.7431 C   0  0  0  0  0  4           0  0  0
   -7.4119    0.2339   -8.6253 C   0  0  0  0  0  4           0  0  0
   -5.9181   -0.1167  -11.0699 C   0  0  0  0  0  4           0  0  0
   -7.8979    0.7046   -9.9970 C   0  0  0  0  0  4           0  0  0
   -7.9215    0.2404  -12.3599 C   0  0  0  0  0  4           0  0  0
    2.5647    2.9899   -0.8678 C   0  0  0  0  0  4           0  0  0
    3.9829   -1.7606   -2.3191 C   0  0  0  0  0  4           0  0  0
    1.7543    3.6517   -1.9721 C   0  0  0  0  0  4           0  0  0
    4.3466   -2.5916   -1.0979 C   0  0  0  0  0  4           0  0  0
  1 25  2  0     0  0
  2 26  2  0     0  0
  3  4  1  0     0  0
  3 11  1  0     0  0
  4 10  2  0     0  0
  5 12  1  0     0  0
  5 29  1  0     0  0
  5 30  1  0     0  0
  6 10  1  0     0  0
  6 26  1  0     0  0
  7 13  1  0     0  0
  7 25  1  0     0  0
  8 25  1  0     0  0
  8 27  1  0     0  0
  8 28  1  0     0  0
  9 31  1  0     0  0
  9 32  1  0     0  0
  9 33  1  0     0  0
 10 14  1  0     0  0
 11 14  2  0     0  0
 11 27  1  0     0  0
 12 18  2  0     0  0
 12 19  1  0     0  0
 13 15  1  0     0  0
 13 16  2  0     0  0
 14 28  1  0     0  0
 15 20  2  0     0  0
 15 34  1  0     0  0
 16 21  1  0     0  0
 16 35  1  0     0  0
 17 22  2  0     0  0
 17 23  1  0     0  0
 17 26  1  0     0  0
 18 22  1  0     0  0
 19 23  2  0     0  0
 20 24  1  0     0  0
 21 24  2  0     0  0
 29 31  1  0     0  0
 30 32  1  0     0  0
 34 36  1  0     0  0
 35 37  1  0     0  0
M  END
> <standard_type>
pIC50

> <# Confs.>
25

> <canonical_smiles>
CN1CCN(C2=CC=C(C(NC3=NNC4=C3CN(C(NC5=C(CC)C=CC=C5CC)=O)C4)=O)C=C2)CC1

> <standard_relation>
=

> <Publication_ID>
nan

> <predicted_activity_value>
6.795880017344075

> <actual_activity_value>
6.8696662315049934

> <Compound>
36

> <standard_units>
nM

> hash
16611291984064295962

$$$$
35_
XXILIB    08252103423D 0   0.00000     0.00000

 37 41  0     1  0            999 V2000
    1.3663   -0.0000   -0.0000 O   0  0  0  0  0  2           0  0  0
    0.2192   -0.0045    2.3367 O   0  0  0  0  0  2           0  0  0
  -10.1608   -2.8197    1.4258 O   0  0  0  0  0  2           0  0  0
    4.6765    3.5874   -4.5991 O   0  0  0  0  0  2           0  0  0
   -8.0194   -1.2542    2.6197 N   0  0  0  0  0  3           0  0  0
   -4.9334   -0.0309   -1.0164 N   0  0  0  0  0  3           0  0  0
   -2.8747   -0.0343   -2.2442 N   0  0  0  0  0  3           0  0  0
   -4.9601    0.0186    1.3670 N   0  0  0  0  0  3           0  0  0
   -9.0057   -2.8288   -0.5729 N   0  0  0  0  0  3           0  0  0
    3.9612    1.1805   -3.2444 N   0  0  1  0  0  3           0  0  0
    0.0000    0.0000    0.0000 C   0  0  0  0  0  4           0  0  0
   -0.6163   -0.0000    1.2552 C   0  0  0  0  0  4           0  0  0
   -4.2117   -0.0486   -2.1449 C   0  0  0  0  0  4           0  0  0
   -4.2404    0.0192    0.1481 C   0  0  0  0  0  4           0  0  0
   -2.1858   -0.0110   -1.0957 C   0  0  0  0  0  4           0  0  0
   -8.0921   -1.7134    1.3214 C   0  0  0  0  0  4           0  0  0
   -6.8583   -0.5527    2.8161 C   0  0  0  0  0  4           0  0  0
   -6.1637   -0.5559    1.6281 C   0  0  0  0  0  4           0  0  0
   -9.9111   -3.5781   -1.3471 C   0  0  0  0  0  4           0  0  0
   -2.8208    0.0077    0.1610 C   0  0  0  0  0  4           0  0  0
   -0.7936   -0.0112   -1.1541 C   0  0  0  0  0  4           0  0  0
   -2.0142    0.0052    1.3285 C   0  0  0  0  0  4           0  0  0
   -6.9366   -1.2828    0.6884 C   0  0  0  0  0  4           0  0  0
  -11.1125   -4.0718   -0.8255 C   0  0  0  0  0  4           0  0  0
   -9.5871   -3.8277   -2.6859 C   0  0  0  0  0  4           0  0  0
  -11.9791   -4.8061   -1.6387 C   0  0  0  0  0  4           0  0  0
  -10.4569   -4.5612   -3.4947 C   0  0  0  0  0  4           0  0  0
  -11.6516   -5.0511   -2.9710 C   0  0  0  0  0  4           0  0  0
   -9.1767   -2.4914    0.7632 C   0  0  0  0  0  4           0  0  0
    1.9810    0.0000   -1.2890 C   0  0  0  0  0  4           0  0  0
    3.9706    3.6332   -3.3593 C   0  0  0  0  0  4           0  0  0
    4.3286    2.4156   -5.3368 C   0  0  0  0  0  4           0  0  0
   -0.4285   -0.0044    3.6064 C   0  0  0  0  0  4           0  0  0
    4.3066    2.4096   -2.5126 C   0  0  0  0  0  4           0  0  0
    4.6683    1.1605   -4.5362 C   0  0  0  0  0  4           0  0  0
    4.2740    0.0000   -2.4348 C   0  0  0  0  0  4           0  0  0
    3.4948   -0.0000   -1.1183 C   0  0  0  0  0  4           0  0  0
  1 11  1  0     0  0
  1 30  1  0     0  0
  2 12  1  0     0  0
  2 33  1  0     0  0
  3 29  2  0     0  0
  4 31  1  0     0  0
  4 32  1  0     0  0
  5 16  1  0     0  0
  5 17  1  0     0  0
  6 13  1  0     0  0
  6 14  2  0     0  0
  7 13  2  0     0  0
  7 15  1  0     0  0
  8 14  1  0     0  0
  8 18  1  0     0  0
  9 19  1  0     0  0
  9 29  1  0     0  0
 10 34  1  0     0  0
 10 35  1  0     0  0
 10 36  1  0     0  0
 11 12  1  0     0  0
 11 21  2  0     0  0
 12 22  2  0     0  0
 14 20  1  0     0  0
 15 20  2  0     0  0
 15 21  1  0     0  0
 16 23  2  0     0  0
 16 29  1  0     0  0
 17 18  2  0     0  0
 18 23  1  0     0  0
 19 24  2  0     0  0
 19 25  1  0     0  0
 20 22  1  0     0  0
 24 26  1  0     0  0
 25 27  2  0     0  0
 26 28  2  0     0  0
 27 28  1  0     0  0
 30 37  1  0     0  0
 31 34  1  0     0  0
 32 35  1  0     0  0
 36 37  1  0     0  0
M  END
> <standard_type>
pIC50

> <# Confs.>
25

> <canonical_smiles>
COC1=CC2=C(C=C1OCCCN3CCOCC3)N=CN=C2NC4=CNC(C(NC5=CC=CC=C5)=O)=C4

> <standard_relation>
=

> <Publication_ID>
nan

> <predicted_activity_value>
6.6777807052660805

> <actual_activity_value>
6.939302159646388

> <Compound>
35

> <standard_units>
nM

> hash
10170315907782814006

$$$$
35_
XXILIB    08252103423D 0   0.00000     0.00000

 37 41  0     1  0            999 V2000
    1.3663   -0.0000   -0.0000 O   0  0  0  0  0  2           0  0  0
    0.2192   -0.0045    2.3367 O   0  0  0  0  0  2           0  0  0
  -10.3624    2.4513    1.3095 O   0  0  0  0  0  2           0  0  0
    4.6765    3.5874   -4.5991 O   0  0  0  0  0  2           0  0  0
   -8.1082    1.1115    2.5685 N   0  0  0  0  0  3           0  0  0
   -4.9334   -0.0309   -1.0164 N   0  0  0  0  0  3           0  0  0
   -2.8747   -0.0343   -2.2442 N   0  0  0  0  0  3           0  0  0
   -4.9601    0.0186    1.3670 N   0  0  0  0  0  3           0  0  0
   -9.2057    2.4659   -0.6882 N   0  0  0  0  0  3           0  0  0
    3.9612    1.1805   -3.2444 N   0  0  1  0  0  3           0  0  0
    0.0000    0.0000    0.0000 C   0  0  0  0  0  4           0  0  0
   -0.6163   -0.0000    1.2552 C   0  0  0  0  0  4           0  0  0
   -4.2117   -0.0486   -2.1449 C   0  0  0  0  0  4           0  0  0
   -4.2404    0.0192    0.1481 C   0  0  0  0  0  4           0  0  0
   -2.1858   -0.0110   -1.0957 C   0  0  0  0  0  4           0  0  0
   -8.2127    1.5080    1.2518 C   0  0  0  0  0  4           0  0  0
   -6.8973    0.5099    2.7937 C   0  0  0  0  0  4           0  0  0
   -6.2029    0.5138    1.6054 C   0  0  0  0  0  4           0  0  0
  -10.1650    3.1074   -1.4936 C   0  0  0  0  0  4           0  0  0
   -2.8208    0.0077    0.1610 C   0  0  0  0  0  4           0  0  0
   -0.7936   -0.0112   -1.1541 C   0  0  0  0  0  4           0  0  0
   -2.0142    0.0052    1.3285 C   0  0  0  0  0  4           0  0  0
   -7.0262    1.1405    0.6368 C   0  0  0  0  0  4           0  0  0
  -11.4032    3.5266   -0.9932 C   0  0  0  0  0  4           0  0  0
   -9.8547    3.3308   -2.8402 C   0  0  0  0  0  4           0  0  0
  -12.3185    4.1638   -1.8344 C   0  0  0  0  0  4           0  0  0
  -10.7724    3.9689   -3.6766 C   0  0  0  0  0  4           0  0  0
  -12.0040    4.3840   -3.1742 C   0  0  0  0  0  4           0  0  0
   -9.3535    2.1736    0.6613 C   0  0  0  0  0  4           0  0  0
    1.9810    0.0000   -1.2890 C   0  0  0  0  0  4           0  0  0
    3.9706    3.6332   -3.3593 C   0  0  0  0  0  4           0  0  0
    4.3286    2.4156   -5.3368 C   0  0  0  0  0  4           0  0  0
   -0.4285   -0.0044    3.6064 C   0  0  0  0  0  4           0  0  0
    4.3066    2.4096   -2.5126 C   0  0  0  0  0  4           0  0  0
    4.6683    1.1605   -4.5362 C   0  0  0  0  0  4           0  0  0
    4.2740    0.0000   -2.4348 C   0  0  0  0  0  4           0  0  0
    3.4948   -0.0000   -1.1183 C   0  0  0  0  0  4           0  0  0
  1 11  1  0     0  0
  1 30  1  0     0  0
  2 12  1  0     0  0
  2 33  1  0     0  0
  3 29  2  0     0  0
  4 31  1  0     0  0
  4 32  1  0     0  0
  5 16  1  0     0  0
  5 17  1  0     0  0
  6 13  1  0     0  0
  6 14  2  0     0  0
  7 13  2  0     0  0
  7 15  1  0     0  0
  8 14  1  0     0  0
  8 18  1  0     0  0
  9 19  1  0     0  0
  9 29  1  0     0  0
 10 34  1  0     0  0
 10 35  1  0     0  0
 10 36  1  0     0  0
 11 12  1  0     0  0
 11 21  2  0     0  0
 12 22  2  0     0  0
 14 20  1  0     0  0
 15 20  2  0     0  0
 15 21  1  0     0  0
 16 23  2  0     0  0
 16 29  1  0     0  0
 17 18  2  0     0  0
 18 23  1  0     0  0
 19 24  2  0     0  0
 19 25  1  0     0  0
 20 22  1  0     0  0
 24 26  1  0     0  0
 25 27  2  0     0  0
 26 28  2  0     0  0
 27 28  1  0     0  0
 30 37  1  0     0  0
 31 34  1  0     0  0
 32 35  1  0     0  0
 36 37  1  0     0  0
M  END
> <standard_type>
pIC50

> <# Confs.>
25

> <canonical_smiles>
COC1=CC2=C(C=C1OCCCN3CCOCC3)N=CN=C2NC4=CNC(C(NC5=CC=CC=C5)=O)=C4

> <standard_relation>
=

> <Publication_ID>
nan

> <predicted_activity_value>
6.6777807052660805

> <actual_activity_value>
6.939302159646388

> <Compound>
35

> <standard_units>
nM

> hash
10170315907782814006

$$$$
35_
XXILIB    08252103423D 0   0.00000     0.00000

 37 41  0     1  0            999 V2000
    1.3663   -0.0000   -0.0000 O   0  0  0  0  0  2           0  0  0
    0.2192   -0.0045    2.3367 O   0  0  0  0  0  2           0  0  0
  -10.1608   -2.8197    1.4258 O   0  0  0  0  0  2           0  0  0
    4.6803   -3.5761   -4.6170 O   0  0  0  0  0  2           0  0  0
   -8.0194   -1.2542    2.6197 N   0  0  0  0  0  3           0  0  0
   -4.9334   -0.0309   -1.0164 N   0  0  0  0  0  3           0  0  0
   -2.8747   -0.0343   -2.2442 N   0  0  0  0  0  3           0  0  0
   -4.9601    0.0186    1.3670 N   0  0  0  0  0  3           0  0  0
   -9.0057   -2.8288   -0.5729 N   0  0  0  0  0  3           0  0  0
    3.9612   -1.1805   -3.2444 N   0  0  1  0  0  3           0  0  0
    0.0000    0.0000    0.0000 C   0  0  0  0  0  4           0  0  0
   -0.6163   -0.0000    1.2552 C   0  0  0  0  0  4           0  0  0
   -4.2117   -0.0486   -2.1449 C   0  0  0  0  0  4           0  0  0
   -4.2404    0.0192    0.1481 C   0  0  0  0  0  4           0  0  0
   -2.1858   -0.0110   -1.0957 C   0  0  0  0  0  4           0  0  0
   -8.0921   -1.7134    1.3214 C   0  0  0  0  0  4           0  0  0
   -6.8583   -0.5527    2.8161 C   0  0  0  0  0  4           0  0  0
   -6.1637   -0.5559    1.6281 C   0  0  0  0  0  4           0  0  0
   -9.9111   -3.5781   -1.3471 C   0  0  0  0  0  4           0  0  0
   -2.8208    0.0077    0.1610 C   0  0  0  0  0  4           0  0  0
   -0.7936   -0.0112   -1.1541 C   0  0  0  0  0  4           0  0  0
   -2.0142    0.0052    1.3285 C   0  0  0  0  0  4           0  0  0
   -6.9366   -1.2828    0.6884 C   0  0  0  0  0  4           0  0  0
  -11.1125   -4.0718   -0.8255 C   0  0  0  0  0  4           0  0  0
   -9.5871   -3.8277   -2.6859 C   0  0  0  0  0  4           0  0  0
  -11.9791   -4.8061   -1.6387 C   0  0  0  0  0  4           0  0  0
  -10.4569   -4.5612   -3.4947 C   0  0  0  0  0  4           0  0  0
  -11.6516   -5.0511   -2.9710 C   0  0  0  0  0  4           0  0  0
   -9.1767   -2.4914    0.7632 C   0  0  0  0  0  4           0  0  0
    1.9810    0.0000   -1.2890 C   0  0  0  0  0  4           0  0  0
    4.3858   -2.3828   -5.3428 C   0  0  0  0  0  4           0  0  0
    3.9246   -3.6321   -3.4069 C   0  0  0  0  0  4           0  0  0
   -0.4285   -0.0044    3.6064 C   0  0  0  0  0  4           0  0  0
    4.7234   -1.1548   -4.5031 C   0  0  0  0  0  4           0  0  0
    4.2463   -2.4311   -2.5207 C   0  0  0  0  0  4           0  0  0
    4.2740    0.0000   -2.4348 C   0  0  0  0  0  4           0  0  0
    3.4948   -0.0000   -1.1183 C   0  0  0  0  0  4           0  0  0
  1 11  1  0     0  0
  1 30  1  0     0  0
  2 12  1  0     0  0
  2 33  1  0     0  0
  3 29  2  0     0  0
  4 31  1  0     0  0
  4 32  1  0     0  0
  5 16  1  0     0  0
  5 17  1  0     0  0
  6 13  1  0     0  0
  6 14  2  0     0  0
  7 13  2  0     0  0
  7 15  1  0     0  0
  8 14  1  0     0  0
  8 18  1  0     0  0
  9 19  1  0     0  0
  9 29  1  0     0  0
 10 34  1  0     0  0
 10 35  1  0     0  0
 10 36  1  0     0  0
 11 12  1  0     0  0
 11 21  2  0     0  0
 12 22  2  0     0  0
 14 20  1  0     0  0
 15 20  2  0     0  0
 15 21  1  0     0  0
 16 23  2  0     0  0
 16 29  1  0     0  0
 17 18  2  0     0  0
 18 23  1  0     0  0
 19 24  2  0     0  0
 19 25  1  0     0  0
 20 22  1  0     0  0
 24 26  1  0     0  0
 25 27  2  0     0  0
 26 28  2  0     0  0
 27 28  1  0     0  0
 30 37  1  0     0  0
 31 34  1  0     0  0
 32 35  1  0     0  0
 36 37  1  0     0  0
M  END
> <standard_type>
pIC50

> <# Confs.>
25

> <canonical_smiles>
COC1=CC2=C(C=C1OCCCN3CCOCC3)N=CN=C2NC4=CNC(C(NC5=CC=CC=C5)=O)=C4

> <standard_relation>
=

> <Publication_ID>
nan

> <predicted_activity_value>
6.6777807052660805

> <actual_activity_value>
6.939302159646388

> <Compound>
35

> <standard_units>
nM

> hash
10170315907782814006

$$$$
35_
XXILIB    08252103423D 0   0.00000     0.00000

 37 41  0     1  0            999 V2000
    1.3663   -0.0000   -0.0000 O   0  0  0  0  0  2           0  0  0
    0.2192   -0.0045    2.3367 O   0  0  0  0  0  2           0  0  0
  -10.3624    2.4513    1.3095 O   0  0  0  0  0  2           0  0  0
    4.6803   -3.5761   -4.6170 O   0  0  0  0  0  2           0  0  0
   -8.1082    1.1115    2.5685 N   0  0  0  0  0  3           0  0  0
   -4.9334   -0.0309   -1.0164 N   0  0  0  0  0  3           0  0  0
   -2.8747   -0.0343   -2.2442 N   0  0  0  0  0  3           0  0  0
   -4.9601    0.0186    1.3670 N   0  0  0  0  0  3           0  0  0
   -9.2057    2.4659   -0.6882 N   0  0  0  0  0  3           0  0  0
    3.9612   -1.1805   -3.2444 N   0  0  1  0  0  3           0  0  0
    0.0000    0.0000    0.0000 C   0  0  0  0  0  4           0  0  0
   -0.6163   -0.0000    1.2552 C   0  0  0  0  0  4           0  0  0
   -4.2117   -0.0486   -2.1449 C   0  0  0  0  0  4           0  0  0
   -4.2404    0.0192    0.1481 C   0  0  0  0  0  4           0  0  0
   -2.1858   -0.0110   -1.0957 C   0  0  0  0  0  4           0  0  0
   -8.2127    1.5080    1.2518 C   0  0  0  0  0  4           0  0  0
   -6.8973    0.5099    2.7937 C   0  0  0  0  0  4           0  0  0
   -6.2029    0.5138    1.6054 C   0  0  0  0  0  4           0  0  0
  -10.1650    3.1074   -1.4936 C   0  0  0  0  0  4           0  0  0
   -2.8208    0.0077    0.1610 C   0  0  0  0  0  4           0  0  0
   -0.7936   -0.0112   -1.1541 C   0  0  0  0  0  4           0  0  0
   -2.0142    0.0052    1.3285 C   0  0  0  0  0  4           0  0  0
   -7.0262    1.1405    0.6368 C   0  0  0  0  0  4           0  0  0
  -11.4032    3.5266   -0.9932 C   0  0  0  0  0  4           0  0  0
   -9.8547    3.3308   -2.8402 C   0  0  0  0  0  4           0  0  0
  -12.3185    4.1638   -1.8344 C   0  0  0  0  0  4           0  0  0
  -10.7724    3.9689   -3.6766 C   0  0  0  0  0  4           0  0  0
  -12.0040    4.3840   -3.1742 C   0  0  0  0  0  4           0  0  0
   -9.3535    2.1736    0.6613 C   0  0  0  0  0  4           0  0  0
    1.9810    0.0000   -1.2890 C   0  0  0  0  0  4           0  0  0
    4.3858   -2.3828   -5.3428 C   0  0  0  0  0  4           0  0  0
    3.9246   -3.6321   -3.4069 C   0  0  0  0  0  4           0  0  0
   -0.4285   -0.0044    3.6064 C   0  0  0  0  0  4           0  0  0
    4.7234   -1.1548   -4.5031 C   0  0  0  0  0  4           0  0  0
    4.2463   -2.4311   -2.5207 C   0  0  0  0  0  4           0  0  0
    4.2740    0.0000   -2.4348 C   0  0  0  0  0  4           0  0  0
    3.4948   -0.0000   -1.1183 C   0  0  0  0  0  4           0  0  0
  1 11  1  0     0  0
  1 30  1  0     0  0
  2 12  1  0     0  0
  2 33  1  0     0  0
  3 29  2  0     0  0
  4 31  1  0     0  0
  4 32  1  0     0  0
  5 16  1  0     0  0
  5 17  1  0     0  0
  6 13  1  0     0  0
  6 14  2  0     0  0
  7 13  2  0     0  0
  7 15  1  0     0  0
  8 14  1  0     0  0
  8 18  1  0     0  0
  9 19  1  0     0  0
  9 29  1  0     0  0
 10 34  1  0     0  0
 10 35  1  0     0  0
 10 36  1  0     0  0
 11 12  1  0     0  0
 11 21  2  0     0  0
 12 22  2  0     0  0
 14 20  1  0     0  0
 15 20  2  0     0  0
 15 21  1  0     0  0
 16 23  2  0     0  0
 16 29  1  0     0  0
 17 18  2  0     0  0
 18 23  1  0     0  0
 19 24  2  0     0  0
 19 25  1  0     0  0
 20 22  1  0     0  0
 24 26  1  0     0  0
 25 27  2  0     0  0
 26 28  2  0     0  0
 27 28  1  0     0  0
 30 37  1  0     0  0
 31 34  1  0     0  0
 32 35  1  0     0  0
 36 37  1  0     0  0
M  END
> <standard_type>
pIC50

> <# Confs.>
25

> <canonical_smiles>
COC1=CC2=C(C=C1OCCCN3CCOCC3)N=CN=C2NC4=CNC(C(NC5=CC=CC=C5)=O)=C4

> <standard_relation>
=

> <Publication_ID>
nan

> <predicted_activity_value>
6.6777807052660805

> <actual_activity_value>
6.939302159646388

> <Compound>
35

> <standard_units>
nM

> hash
10170315907782814006

$$$$
35_
XXILIB    08252103423D 0   0.00000     0.00000

 37 41  0     1  0            999 V2000
    1.3663    0.0000    0.0000 O   0  0  0  0  0  2           0  0  0
    0.2192   -0.0045    2.3367 O   0  0  0  0  0  2           0  0  0
  -10.1608   -2.8197    1.4258 O   0  0  0  0  0  2           0  0  0
    7.9048    1.0573    1.3042 O   0  0  0  0  0  2           0  0  0
   -8.0194   -1.2542    2.6197 N   0  0  0  0  0  3           0  0  0
   -4.9334   -0.0309   -1.0164 N   0  0  0  0  0  3           0  0  0
   -2.8747   -0.0343   -2.2442 N   0  0  0  0  0  3           0  0  0
   -4.9601    0.0186    1.3670 N   0  0  0  0  0  3           0  0  0
   -9.0057   -2.8288   -0.5729 N   0  0  0  0  0  3           0  0  0
    5.4978    1.1494   -0.2247 N   0  0  1  0  0  3           0  0  0
    0.0000    0.0000    0.0000 C   0  0  0  0  0  4           0  0  0
   -0.6163   -0.0000    1.2552 C   0  0  0  0  0  4           0  0  0
   -4.2117   -0.0486   -2.1449 C   0  0  0  0  0  4           0  0  0
   -4.2404    0.0192    0.1481 C   0  0  0  0  0  4           0  0  0
   -2.1858   -0.0110   -1.0957 C   0  0  0  0  0  4           0  0  0
   -8.0921   -1.7134    1.3214 C   0  0  0  0  0  4           0  0  0
   -6.8583   -0.5527    2.8161 C   0  0  0  0  0  4           0  0  0
   -6.1637   -0.5559    1.6281 C   0  0  0  0  0  4           0  0  0
   -9.9111   -3.5781   -1.3471 C   0  0  0  0  0  4           0  0  0
   -2.8208    0.0077    0.1610 C   0  0  0  0  0  4           0  0  0
   -0.7936   -0.0112   -1.1541 C   0  0  0  0  0  4           0  0  0
   -2.0142    0.0052    1.3285 C   0  0  0  0  0  4           0  0  0
   -6.9366   -1.2828    0.6884 C   0  0  0  0  0  4           0  0  0
  -11.1125   -4.0718   -0.8255 C   0  0  0  0  0  4           0  0  0
   -9.5871   -3.8277   -2.6859 C   0  0  0  0  0  4           0  0  0
  -11.9791   -4.8061   -1.6387 C   0  0  0  0  0  4           0  0  0
  -10.4569   -4.5612   -3.4947 C   0  0  0  0  0  4           0  0  0
  -11.6516   -5.0511   -2.9710 C   0  0  0  0  0  4           0  0  0
   -9.1767   -2.4914    0.7632 C   0  0  0  0  0  4           0  0  0
    1.9810    0.0000   -1.2890 C   0  0  0  0  0  4           0  0  0
    7.5131    2.2566    0.6365 C   0  0  0  0  0  4           0  0  0
    7.4580   -0.0919    0.5844 C   0  0  0  0  0  4           0  0  0
   -0.4285   -0.0044    3.6064 C   0  0  0  0  0  4           0  0  0
    5.9941    2.3222    0.5126 C   0  0  0  0  0  4           0  0  0
    5.9368   -0.0818    0.4539 C   0  0  0  0  0  4           0  0  0
    4.0395    1.2085   -0.3548 C   0  0  0  0  0  4           0  0  0
    3.4948   -0.0000   -1.1183 C   0  0  0  0  0  4           0  0  0
  1 11  1  0     0  0
  1 30  1  0     0  0
  2 12  1  0     0  0
  2 33  1  0     0  0
  3 29  2  0     0  0
  4 31  1  0     0  0
  4 32  1  0     0  0
  5 16  1  0     0  0
  5 17  1  0     0  0
  6 13  1  0     0  0
  6 14  2  0     0  0
  7 13  2  0     0  0
  7 15  1  0     0  0
  8 14  1  0     0  0
  8 18  1  0     0  0
  9 19  1  0     0  0
  9 29  1  0     0  0
 10 34  1  0     0  0
 10 35  1  0     0  0
 10 36  1  0     0  0
 11 12  1  0     0  0
 11 21  2  0     0  0
 12 22  2  0     0  0
 14 20  1  0     0  0
 15 20  2  0     0  0
 15 21  1  0     0  0
 16 23  2  0     0  0
 16 29  1  0     0  0
 17 18  2  0     0  0
 18 23  1  0     0  0
 19 24  2  0     0  0
 19 25  1  0     0  0
 20 22  1  0     0  0
 24 26  1  0     0  0
 25 27  2  0     0  0
 26 28  2  0     0  0
 27 28  1  0     0  0
 30 37  1  0     0  0
 31 34  1  0     0  0
 32 35  1  0     0  0
 36 37  1  0     0  0
M  END
> <standard_type>
pIC50

> <# Confs.>
25

> <canonical_smiles>
COC1=CC2=C(C=C1OCCCN3CCOCC3)N=CN=C2NC4=CNC(C(NC5=CC=CC=C5)=O)=C4

> <standard_relation>
=

> <Publication_ID>
nan

> <predicted_activity_value>
6.6777807052660805

> <actual_activity_value>
6.939302159646388

> <Compound>
35

> <standard_units>
nM

> hash
10170315907782814006

$$$$
35_
XXILIB    08252103423D 0   0.00000     0.00000

 37 41  0     1  0            999 V2000
    1.3663   -0.0000   -0.0000 O   0  0  0  0  0  2           0  0  0
    0.2192   -0.0045    2.3367 O   0  0  0  0  0  2           0  0  0
  -10.1608   -2.8197    1.4258 O   0  0  0  0  0  2           0  0  0
    2.9355    5.8419   -2.8964 O   0  0  0  0  0  2           0  0  0
   -8.0194   -1.2542    2.6197 N   0  0  0  0  0  3           0  0  0
   -4.9334   -0.0309   -1.0164 N   0  0  0  0  0  3           0  0  0
   -2.8747   -0.0343   -2.2442 N   0  0  0  0  0  3           0  0  0
   -4.9601    0.0186    1.3670 N   0  0  0  0  0  3           0  0  0
   -9.0057   -2.8288   -0.5729 N   0  0  0  0  0  3           0  0  0
    3.3141    3.0714   -2.3294 N   0  0  1  0  0  3           0  0  0
    0.0000    0.0000    0.0000 C   0  0  0  0  0  4           0  0  0
   -0.6163   -0.0000    1.2552 C   0  0  0  0  0  4           0  0  0
   -4.2117   -0.0486   -2.1449 C   0  0  0  0  0  4           0  0  0
   -4.2404    0.0192    0.1481 C   0  0  0  0  0  4           0  0  0
   -2.1858   -0.0110   -1.0957 C   0  0  0  0  0  4           0  0  0
   -8.0921   -1.7134    1.3214 C   0  0  0  0  0  4           0  0  0
   -6.8583   -0.5527    2.8161 C   0  0  0  0  0  4           0  0  0
   -6.1637   -0.5559    1.6281 C   0  0  0  0  0  4           0  0  0
   -9.9111   -3.5781   -1.3471 C   0  0  0  0  0  4           0  0  0
   -2.8208    0.0077    0.1610 C   0  0  0  0  0  4           0  0  0
   -0.7936   -0.0112   -1.1541 C   0  0  0  0  0  4           0  0  0
   -2.0142    0.0052    1.3285 C   0  0  0  0  0  4           0  0  0
   -6.9366   -1.2828    0.6884 C   0  0  0  0  0  4           0  0  0
  -11.1125   -4.0718   -0.8255 C   0  0  0  0  0  4           0  0  0
   -9.5871   -3.8277   -2.6859 C   0  0  0  0  0  4           0  0  0
  -11.9791   -4.8061   -1.6387 C   0  0  0  0  0  4           0  0  0
  -10.4569   -4.5612   -3.4947 C   0  0  0  0  0  4           0  0  0
  -11.6516   -5.0511   -2.9710 C   0  0  0  0  0  4           0  0  0
   -9.1767   -2.4914    0.7632 C   0  0  0  0  0  4           0  0  0
    1.9810    0.6445   -1.1163 C   0  0  0  0  0  4           0  0  0
    2.2214    5.2134   -1.8322 C   0  0  0  0  0  4           0  0  0
    3.1929    4.9140   -3.9506 C   0  0  0  0  0  4           0  0  0
   -0.4285   -0.0044    3.6064 C   0  0  0  0  0  4           0  0  0
    3.0290    4.0490   -1.2671 C   0  0  0  0  0  4           0  0  0
    4.0202    3.7381   -3.4366 C   0  0  0  0  0  4           0  0  0
    4.0833    1.9455   -1.7932 C   0  0  0  0  0  4           0  0  0
    3.3207    1.2242   -0.6804 C   0  0  0  0  0  4           0  0  0
  1 11  1  0     0  0
  1 30  1  0     0  0
  2 12  1  0     0  0
  2 33  1  0     0  0
  3 29  2  0     0  0
  4 31  1  0     0  0
  4 32  1  0     0  0
  5 16  1  0     0  0
  5 17  1  0     0  0
  6 13  1  0     0  0
  6 14  2  0     0  0
  7 13  2  0     0  0
  7 15  1  0     0  0
  8 14  1  0     0  0
  8 18  1  0     0  0
  9 19  1  0     0  0
  9 29  1  0     0  0
 10 34  1  0     0  0
 10 35  1  0     0  0
 10 36  1  0     0  0
 11 12  1  0     0  0
 11 21  2  0     0  0
 12 22  2  0     0  0
 14 20  1  0     0  0
 15 20  2  0     0  0
 15 21  1  0     0  0
 16 23  2  0     0  0
 16 29  1  0     0  0
 17 18  2  0     0  0
 18 23  1  0     0  0
 19 24  2  0     0  0
 19 25  1  0     0  0
 20 22  1  0     0  0
 24 26  1  0     0  0
 25 27  2  0     0  0
 26 28  2  0     0  0
 27 28  1  0     0  0
 30 37  1  0     0  0
 31 34  1  0     0  0
 32 35  1  0     0  0
 36 37  1  0     0  0
M  END
> <standard_type>
pIC50

> <# Confs.>
25

> <canonical_smiles>
COC1=CC2=C(C=C1OCCCN3CCOCC3)N=CN=C2NC4=CNC(C(NC5=CC=CC=C5)=O)=C4

> <standard_relation>
=

> <Publication_ID>
nan

> <predicted_activity_value>
6.6777807052660805

> <actual_activity_value>
6.939302159646388

> <Compound>
35

> <standard_units>
nM

> hash
10170315907782814006

$$$$
35_
XXILIB    08252103423D 0   0.00000     0.00000

 37 41  0     1  0            999 V2000
    1.3663    0.0000    0.0000 O   0  0  0  0  0  2           0  0  0
    0.2192   -0.0045    2.3367 O   0  0  0  0  0  2           0  0  0
  -10.3624    2.4513    1.3095 O   0  0  0  0  0  2           0  0  0
    7.9048    1.0573    1.3042 O   0  0  0  0  0  2           0  0  0
   -8.1082    1.1115    2.5685 N   0  0  0  0  0  3           0  0  0
   -4.9334   -0.0309   -1.0164 N   0  0  0  0  0  3           0  0  0
   -2.8747   -0.0343   -2.2442 N   0  0  0  0  0  3           0  0  0
   -4.9601    0.0186    1.3670 N   0  0  0  0  0  3           0  0  0
   -9.2057    2.4659   -0.6882 N   0  0  0  0  0  3           0  0  0
    5.4978    1.1494   -0.2247 N   0  0  1  0  0  3           0  0  0
    0.0000    0.0000    0.0000 C   0  0  0  0  0  4           0  0  0
   -0.6163   -0.0000    1.2552 C   0  0  0  0  0  4           0  0  0
   -4.2117   -0.0486   -2.1449 C   0  0  0  0  0  4           0  0  0
   -4.2404    0.0192    0.1481 C   0  0  0  0  0  4           0  0  0
   -2.1858   -0.0110   -1.0957 C   0  0  0  0  0  4           0  0  0
   -8.2127    1.5080    1.2518 C   0  0  0  0  0  4           0  0  0
   -6.8973    0.5099    2.7937 C   0  0  0  0  0  4           0  0  0
   -6.2029    0.5138    1.6054 C   0  0  0  0  0  4           0  0  0
  -10.1650    3.1074   -1.4936 C   0  0  0  0  0  4           0  0  0
   -2.8208    0.0077    0.1610 C   0  0  0  0  0  4           0  0  0
   -0.7936   -0.0112   -1.1541 C   0  0  0  0  0  4           0  0  0
   -2.0142    0.0052    1.3285 C   0  0  0  0  0  4           0  0  0
   -7.0262    1.1405    0.6368 C   0  0  0  0  0  4           0  0  0
  -11.4032    3.5266   -0.9932 C   0  0  0  0  0  4           0  0  0
   -9.8547    3.3308   -2.8402 C   0  0  0  0  0  4           0  0  0
  -12.3185    4.1638   -1.8344 C   0  0  0  0  0  4           0  0  0
  -10.7724    3.9689   -3.6766 C   0  0  0  0  0  4           0  0  0
  -12.0040    4.3840   -3.1742 C   0  0  0  0  0  4           0  0  0
   -9.3535    2.1736    0.6613 C   0  0  0  0  0  4           0  0  0
    1.9810    0.0000   -1.2890 C   0  0  0  0  0  4           0  0  0
    7.5131    2.2566    0.6365 C   0  0  0  0  0  4           0  0  0
    7.4580   -0.0919    0.5844 C   0  0  0  0  0  4           0  0  0
   -0.4285   -0.0044    3.6064 C   0  0  0  0  0  4           0  0  0
    5.9941    2.3222    0.5126 C   0  0  0  0  0  4           0  0  0
    5.9368   -0.0818    0.4539 C   0  0  0  0  0  4           0  0  0
    4.0395    1.2085   -0.3548 C   0  0  0  0  0  4           0  0  0
    3.4948   -0.0000   -1.1183 C   0  0  0  0  0  4           0  0  0
  1 11  1  0     0  0
  1 30  1  0     0  0
  2 12  1  0     0  0
  2 33  1  0     0  0
  3 29  2  0     0  0
  4 31  1  0     0  0
  4 32  1  0     0  0
  5 16  1  0     0  0
  5 17  1  0     0  0
  6 13  1  0     0  0
  6 14  2  0     0  0
  7 13  2  0     0  0
  7 15  1  0     0  0
  8 14  1  0     0  0
  8 18  1  0     0  0
  9 19  1  0     0  0
  9 29  1  0     0  0
 10 34  1  0     0  0
 10 35  1  0     0  0
 10 36  1  0     0  0
 11 12  1  0     0  0
 11 21  2  0     0  0
 12 22  2  0     0  0
 14 20  1  0     0  0
 15 20  2  0     0  0
 15 21  1  0     0  0
 16 23  2  0     0  0
 16 29  1  0     0  0
 17 18  2  0     0  0
 18 23  1  0     0  0
 19 24  2  0     0  0
 19 25  1  0     0  0
 20 22  1  0     0  0
 24 26  1  0     0  0
 25 27  2  0     0  0
 26 28  2  0     0  0
 27 28  1  0     0  0
 30 37  1  0     0  0
 31 34  1  0     0  0
 32 35  1  0     0  0
 36 37  1  0     0  0
M  END
> <standard_type>
pIC50

> <# Confs.>
25

> <canonical_smiles>
COC1=CC2=C(C=C1OCCCN3CCOCC3)N=CN=C2NC4=CNC(C(NC5=CC=CC=C5)=O)=C4

> <standard_relation>
=

> <Publication_ID>
nan

> <predicted_activity_value>
6.6777807052660805

> <actual_activity_value>
6.939302159646388

> <Compound>
35

> <standard_units>
nM

> hash
10170315907782814006

$$$$
35_
XXILIB    08252103423D 0   0.00000     0.00000

 37 41  0     1  0            999 V2000
    1.3663   -0.0000   -0.0000 O   0  0  0  0  0  2           0  0  0
    0.2192   -0.0045    2.3367 O   0  0  0  0  0  2           0  0  0
  -10.3624    2.4513    1.3095 O   0  0  0  0  0  2           0  0  0
    2.9355    5.8419   -2.8964 O   0  0  0  0  0  2           0  0  0
   -8.1082    1.1115    2.5685 N   0  0  0  0  0  3           0  0  0
   -4.9334   -0.0309   -1.0164 N   0  0  0  0  0  3           0  0  0
   -2.8747   -0.0343   -2.2442 N   0  0  0  0  0  3           0  0  0
   -4.9601    0.0186    1.3670 N   0  0  0  0  0  3           0  0  0
   -9.2057    2.4659   -0.6882 N   0  0  0  0  0  3           0  0  0
    3.3141    3.0714   -2.3294 N   0  0  1  0  0  3           0  0  0
    0.0000    0.0000    0.0000 C   0  0  0  0  0  4           0  0  0
   -0.6163   -0.0000    1.2552 C   0  0  0  0  0  4           0  0  0
   -4.2117   -0.0486   -2.1449 C   0  0  0  0  0  4           0  0  0
   -4.2404    0.0192    0.1481 C   0  0  0  0  0  4           0  0  0
   -2.1858   -0.0110   -1.0957 C   0  0  0  0  0  4           0  0  0
   -8.2127    1.5080    1.2518 C   0  0  0  0  0  4           0  0  0
   -6.8973    0.5099    2.7937 C   0  0  0  0  0  4           0  0  0
   -6.2029    0.5138    1.6054 C   0  0  0  0  0  4           0  0  0
  -10.1650    3.1074   -1.4936 C   0  0  0  0  0  4           0  0  0
   -2.8208    0.0077    0.1610 C   0  0  0  0  0  4           0  0  0
   -0.7936   -0.0112   -1.1541 C   0  0  0  0  0  4           0  0  0
   -2.0142    0.0052    1.3285 C   0  0  0  0  0  4           0  0  0
   -7.0262    1.1405    0.6368 C   0  0  0  0  0  4           0  0  0
  -11.4032    3.5266   -0.9932 C   0  0  0  0  0  4           0  0  0
   -9.8547    3.3308   -2.8402 C   0  0  0  0  0  4           0  0  0
  -12.3185    4.1638   -1.8344 C   0  0  0  0  0  4           0  0  0
  -10.7724    3.9689   -3.6766 C   0  0  0  0  0  4           0  0  0
  -12.0040    4.3840   -3.1742 C   0  0  0  0  0  4           0  0  0
   -9.3535    2.1736    0.6613 C   0  0  0  0  0  4           0  0  0
    1.9810    0.6445   -1.1163 C   0  0  0  0  0  4           0  0  0
    2.2214    5.2134   -1.8322 C   0  0  0  0  0  4           0  0  0
    3.1929    4.9140   -3.9506 C   0  0  0  0  0  4           0  0  0
   -0.4285   -0.0044    3.6064 C   0  0  0  0  0  4           0  0  0
    3.0290    4.0490   -1.2671 C   0  0  0  0  0  4           0  0  0
    4.0202    3.7381   -3.4366 C   0  0  0  0  0  4           0  0  0
    4.0833    1.9455   -1.7932 C   0  0  0  0  0  4           0  0  0
    3.3207    1.2242   -0.6804 C   0  0  0  0  0  4           0  0  0
  1 11  1  0     0  0
  1 30  1  0     0  0
  2 12  1  0     0  0
  2 33  1  0     0  0
  3 29  2  0     0  0
  4 31  1  0     0  0
  4 32  1  0     0  0
  5 16  1  0     0  0
  5 17  1  0     0  0
  6 13  1  0     0  0
  6 14  2  0     0  0
  7 13  2  0     0  0
  7 15  1  0     0  0
  8 14  1  0     0  0
  8 18  1  0     0  0
  9 19  1  0     0  0
  9 29  1  0     0  0
 10 34  1  0     0  0
 10 35  1  0     0  0
 10 36  1  0     0  0
 11 12  1  0     0  0
 11 21  2  0     0  0
 12 22  2  0     0  0
 14 20  1  0     0  0
 15 20  2  0     0  0
 15 21  1  0     0  0
 16 23  2  0     0  0
 16 29  1  0     0  0
 17 18  2  0     0  0
 18 23  1  0     0  0
 19 24  2  0     0  0
 19 25  1  0     0  0
 20 22  1  0     0  0
 24 26  1  0     0  0
 25 27  2  0     0  0
 26 28  2  0     0  0
 27 28  1  0     0  0
 30 37  1  0     0  0
 31 34  1  0     0  0
 32 35  1  0     0  0
 36 37  1  0     0  0
M  END
> <standard_type>
pIC50

> <# Confs.>
25

> <canonical_smiles>
COC1=CC2=C(C=C1OCCCN3CCOCC3)N=CN=C2NC4=CNC(C(NC5=CC=CC=C5)=O)=C4

> <standard_relation>
=

> <Publication_ID>
nan

> <predicted_activity_value>
6.6777807052660805

> <actual_activity_value>
6.939302159646388

> <Compound>
35

> <standard_units>
nM

> hash
10170315907782814006

$$$$
35_
XXILIB    08252103423D 0   0.00000     0.00000

 37 41  0     1  0            999 V2000
    1.3663   -0.0000    0.0000 O   0  0  0  0  0  2           0  0  0
    0.2192   -0.0045    2.3367 O   0  0  0  0  0  2           0  0  0
  -10.1608   -2.8197    1.4258 O   0  0  0  0  0  2           0  0  0
    4.6765    0.8073   -5.7766 O   0  0  0  0  0  2           0  0  0
   -8.0194   -1.2542    2.6197 N   0  0  0  0  0  3           0  0  0
   -4.9334   -0.0309   -1.0164 N   0  0  0  0  0  3           0  0  0
   -2.8747   -0.0343   -2.2442 N   0  0  0  0  0  3           0  0  0
   -4.9601    0.0186    1.3670 N   0  0  0  0  0  3           0  0  0
   -9.0057   -2.8288   -0.5729 N   0  0  0  0  0  3           0  0  0
    3.9612   -0.5999   -3.4000 N   0  0  1  0  0  3           0  0  0
    0.0000    0.0000    0.0000 C   0  0  0  0  0  4           0  0  0
   -0.6163   -0.0000    1.2552 C   0  0  0  0  0  4           0  0  0
   -4.2117   -0.0486   -2.1449 C   0  0  0  0  0  4           0  0  0
   -4.2404    0.0192    0.1481 C   0  0  0  0  0  4           0  0  0
   -2.1858   -0.0110   -1.0957 C   0  0  0  0  0  4           0  0  0
   -8.0921   -1.7134    1.3214 C   0  0  0  0  0  4           0  0  0
   -6.8583   -0.5527    2.8161 C   0  0  0  0  0  4           0  0  0
   -6.1637   -0.5559    1.6281 C   0  0  0  0  0  4           0  0  0
   -9.9111   -3.5781   -1.3471 C   0  0  0  0  0  4           0  0  0
   -2.8208    0.0077    0.1610 C   0  0  0  0  0  4           0  0  0
   -0.7936   -0.0112   -1.1541 C   0  0  0  0  0  4           0  0  0
   -2.0142    0.0052    1.3285 C   0  0  0  0  0  4           0  0  0
   -6.9366   -1.2828    0.6884 C   0  0  0  0  0  4           0  0  0
  -11.1125   -4.0718   -0.8255 C   0  0  0  0  0  4           0  0  0
   -9.5871   -3.8277   -2.6859 C   0  0  0  0  0  4           0  0  0
  -11.9791   -4.8061   -1.6387 C   0  0  0  0  0  4           0  0  0
  -10.4569   -4.5612   -3.4947 C   0  0  0  0  0  4           0  0  0
  -11.6516   -5.0511   -2.9710 C   0  0  0  0  0  4           0  0  0
   -9.1767   -2.4914    0.7632 C   0  0  0  0  0  4           0  0  0
    1.9810   -0.6445   -1.1163 C   0  0  0  0  0  4           0  0  0
    3.9706    1.4668   -4.7258 C   0  0  0  0  0  4           0  0  0
    4.3286   -0.5765   -5.8296 C   0  0  0  0  0  4           0  0  0
   -0.4285   -0.0044    3.6064 C   0  0  0  0  0  4           0  0  0
    4.3066    0.8305   -3.3808 C   0  0  0  0  0  4           0  0  0
    4.6683   -1.2631   -4.5087 C   0  0  0  0  0  4           0  0  0
    4.2740   -1.2174   -2.1086 C   0  0  0  0  0  4           0  0  0
    3.4948   -0.5592   -0.9685 C   0  0  0  0  0  4           0  0  0
  1 11  1  0     0  0
  1 30  1  0     0  0
  2 12  1  0     0  0
  2 33  1  0     0  0
  3 29  2  0     0  0
  4 31  1  0     0  0
  4 32  1  0     0  0
  5 16  1  0     0  0
  5 17  1  0     0  0
  6 13  1  0     0  0
  6 14  2  0     0  0
  7 13  2  0     0  0
  7 15  1  0     0  0
  8 14  1  0     0  0
  8 18  1  0     0  0
  9 19  1  0     0  0
  9 29  1  0     0  0
 10 34  1  0     0  0
 10 35  1  0     0  0
 10 36  1  0     0  0
 11 12  1  0     0  0
 11 21  2  0     0  0
 12 22  2  0     0  0
 14 20  1  0     0  0
 15 20  2  0     0  0
 15 21  1  0     0  0
 16 23  2  0     0  0
 16 29  1  0     0  0
 17 18  2  0     0  0
 18 23  1  0     0  0
 19 24  2  0     0  0
 19 25  1  0     0  0
 20 22  1  0     0  0
 24 26  1  0     0  0
 25 27  2  0     0  0
 26 28  2  0     0  0
 27 28  1  0     0  0
 30 37  1  0     0  0
 31 34  1  0     0  0
 32 35  1  0     0  0
 36 37  1  0     0  0
M  END
> <standard_type>
pIC50

> <# Confs.>
25

> <canonical_smiles>
COC1=CC2=C(C=C1OCCCN3CCOCC3)N=CN=C2NC4=CNC(C(NC5=CC=CC=C5)=O)=C4

> <standard_relation>
=

> <Publication_ID>
nan

> <predicted_activity_value>
6.6777807052660805

> <actual_activity_value>
6.939302159646388

> <Compound>
35

> <standard_units>
nM

> hash
10170315907782814006

$$$$
35_
XXILIB    08252103423D 0   0.00000     0.00000

 37 41  0     1  0            999 V2000
    1.3663   -0.0000    0.0000 O   0  0  0  0  0  2           0  0  0
    0.2192   -0.0045    2.3367 O   0  0  0  0  0  2           0  0  0
  -10.1608   -2.8197    1.4258 O   0  0  0  0  0  2           0  0  0
    6.6461    3.2397    2.6833 O   0  0  0  0  0  2           0  0  0
   -8.0194   -1.2542    2.6197 N   0  0  0  0  0  3           0  0  0
   -4.9334   -0.0309   -1.0164 N   0  0  0  0  0  3           0  0  0
   -2.8747   -0.0343   -2.2442 N   0  0  0  0  0  3           0  0  0
   -4.9601    0.0186    1.3670 N   0  0  0  0  0  3           0  0  0
   -9.0057   -2.8288   -0.5729 N   0  0  0  0  0  3           0  0  0
    4.5398    2.7757    0.8156 N   0  0  1  0  0  3           0  0  0
    0.0000    0.0000    0.0000 C   0  0  0  0  0  4           0  0  0
   -0.6163   -0.0000    1.2552 C   0  0  0  0  0  4           0  0  0
   -4.2117   -0.0486   -2.1449 C   0  0  0  0  0  4           0  0  0
   -4.2404    0.0192    0.1481 C   0  0  0  0  0  4           0  0  0
   -2.1858   -0.0110   -1.0957 C   0  0  0  0  0  4           0  0  0
   -8.0921   -1.7134    1.3214 C   0  0  0  0  0  4           0  0  0
   -6.8583   -0.5527    2.8161 C   0  0  0  0  0  4           0  0  0
   -6.1637   -0.5559    1.6281 C   0  0  0  0  0  4           0  0  0
   -9.9111   -3.5781   -1.3471 C   0  0  0  0  0  4           0  0  0
   -2.8208    0.0077    0.1610 C   0  0  0  0  0  4           0  0  0
   -0.7936   -0.0112   -1.1541 C   0  0  0  0  0  4           0  0  0
   -2.0142    0.0052    1.3285 C   0  0  0  0  0  4           0  0  0
   -6.9366   -1.2828    0.6884 C   0  0  0  0  0  4           0  0  0
  -11.1125   -4.0718   -0.8255 C   0  0  0  0  0  4           0  0  0
   -9.5871   -3.8277   -2.6859 C   0  0  0  0  0  4           0  0  0
  -11.9791   -4.8061   -1.6387 C   0  0  0  0  0  4           0  0  0
  -10.4569   -4.5612   -3.4947 C   0  0  0  0  0  4           0  0  0
  -11.6516   -5.0511   -2.9710 C   0  0  0  0  0  4           0  0  0
   -9.1767   -2.4914    0.7632 C   0  0  0  0  0  4           0  0  0
    1.9810    0.6445   -1.1163 C   0  0  0  0  0  4           0  0  0
    5.7906    4.3060    2.2726 C   0  0  0  0  0  4           0  0  0
    6.8042    2.2846    1.6338 C   0  0  0  0  0  4           0  0  0
   -0.4285   -0.0044    3.6064 C   0  0  0  0  0  4           0  0  0
    4.4142    3.7664    1.8965 C   0  0  0  0  0  4           0  0  0
    5.4512    1.6985    1.2373 C   0  0  0  0  0  4           0  0  0
    3.2208    2.2577    0.4430 C   0  0  0  0  0  4           0  0  0
    3.3207    1.2242   -0.6804 C   0  0  0  0  0  4           0  0  0
  1 11  1  0     0  0
  1 30  1  0     0  0
  2 12  1  0     0  0
  2 33  1  0     0  0
  3 29  2  0     0  0
  4 31  1  0     0  0
  4 32  1  0     0  0
  5 16  1  0     0  0
  5 17  1  0     0  0
  6 13  1  0     0  0
  6 14  2  0     0  0
  7 13  2  0     0  0
  7 15  1  0     0  0
  8 14  1  0     0  0
  8 18  1  0     0  0
  9 19  1  0     0  0
  9 29  1  0     0  0
 10 34  1  0     0  0
 10 35  1  0     0  0
 10 36  1  0     0  0
 11 12  1  0     0  0
 11 21  2  0     0  0
 12 22  2  0     0  0
 14 20  1  0     0  0
 15 20  2  0     0  0
 15 21  1  0     0  0
 16 23  2  0     0  0
 16 29  1  0     0  0
 17 18  2  0     0  0
 18 23  1  0     0  0
 19 24  2  0     0  0
 19 25  1  0     0  0
 20 22  1  0     0  0
 24 26  1  0     0  0
 25 27  2  0     0  0
 26 28  2  0     0  0
 27 28  1  0     0  0
 30 37  1  0     0  0
 31 34  1  0     0  0
 32 35  1  0     0  0
 36 37  1  0     0  0
M  END
> <standard_type>
pIC50

> <# Confs.>
25

> <canonical_smiles>
COC1=CC2=C(C=C1OCCCN3CCOCC3)N=CN=C2NC4=CNC(C(NC5=CC=CC=C5)=O)=C4

> <standard_relation>
=

> <Publication_ID>
nan

> <predicted_activity_value>
6.6777807052660805

> <actual_activity_value>
6.939302159646388

> <Compound>
35

> <standard_units>
nM

> hash
10170315907782814006

$$$$
35_
XXILIB    08252103423D 0   0.00000     0.00000

 37 41  0     1  0            999 V2000
    1.3663   -0.0000   -0.0000 O   0  0  0  0  0  2           0  0  0
    0.2192   -0.0045    2.3367 O   0  0  0  0  0  2           0  0  0
   -8.7749    4.4658    2.2479 O   0  0  0  0  0  2           0  0  0
    4.6765    3.5874   -4.5991 O   0  0  0  0  0  2           0  0  0
   -7.3951    2.0149    2.9900 N   0  0  0  0  0  3           0  0  0
   -4.9334   -0.0309   -1.0164 N   0  0  0  0  0  3           0  0  0
   -2.8747   -0.0343   -2.2442 N   0  0  0  0  0  3           0  0  0
   -4.9601    0.0186    1.3670 N   0  0  0  0  0  3           0  0  0
   -7.6100    4.4884    0.2550 N   0  0  0  0  0  3           0  0  0
    3.9612    1.1805   -3.2444 N   0  0  1  0  0  3           0  0  0
    0.0000    0.0000    0.0000 C   0  0  0  0  0  4           0  0  0
   -0.6163   -0.0000    1.2552 C   0  0  0  0  0  4           0  0  0
   -4.2117   -0.0486   -2.1449 C   0  0  0  0  0  4           0  0  0
   -4.2404    0.0192    0.1481 C   0  0  0  0  0  4           0  0  0
   -2.1858   -0.0110   -1.0957 C   0  0  0  0  0  4           0  0  0
   -7.2416    2.7381    1.8258 C   0  0  0  0  0  4           0  0  0
   -6.5767    0.9154    2.9832 C   0  0  0  0  0  4           0  0  0
   -5.8802    0.9219    1.7962 C   0  0  0  0  0  4           0  0  0
   -8.1508    5.6618   -0.3030 C   0  0  0  0  0  4           0  0  0
   -2.8208    0.0077    0.1610 C   0  0  0  0  0  4           0  0  0
   -0.7936   -0.0112   -1.1541 C   0  0  0  0  0  4           0  0  0
   -2.0142    0.0052    1.3285 C   0  0  0  0  0  4           0  0  0
   -6.2952    2.0654    1.0689 C   0  0  0  0  0  4           0  0  0
   -9.1147    6.4306    0.3595 C   0  0  0  0  0  4           0  0  0
   -7.6965    6.0640   -1.5644 C   0  0  0  0  0  4           0  0  0
   -9.6156    7.5904   -0.2367 C   0  0  0  0  0  4           0  0  0
   -8.1994    7.2244   -2.1557 C   0  0  0  0  0  4           0  0  0
   -9.1592    7.9864   -1.4927 C   0  0  0  0  0  4           0  0  0
   -7.9479    3.9558    1.4921 C   0  0  0  0  0  4           0  0  0
    1.9810    0.0000   -1.2890 C   0  0  0  0  0  4           0  0  0
    3.9706    3.6332   -3.3593 C   0  0  0  0  0  4           0  0  0
    4.3286    2.4156   -5.3368 C   0  0  0  0  0  4           0  0  0
   -0.4285   -0.0044    3.6064 C   0  0  0  0  0  4           0  0  0
    4.3066    2.4096   -2.5126 C   0  0  0  0  0  4           0  0  0
    4.6683    1.1605   -4.5362 C   0  0  0  0  0  4           0  0  0
    4.2740    0.0000   -2.4348 C   0  0  0  0  0  4           0  0  0
    3.4948   -0.0000   -1.1183 C   0  0  0  0  0  4           0  0  0
  1 11  1  0     0  0
  1 30  1  0     0  0
  2 12  1  0     0  0
  2 33  1  0     0  0
  3 29  2  0     0  0
  4 31  1  0     0  0
  4 32  1  0     0  0
  5 16  1  0     0  0
  5 17  1  0     0  0
  6 13  1  0     0  0
  6 14  2  0     0  0
  7 13  2  0     0  0
  7 15  1  0     0  0
  8 14  1  0     0  0
  8 18  1  0     0  0
  9 19  1  0     0  0
  9 29  1  0     0  0
 10 34  1  0     0  0
 10 35  1  0     0  0
 10 36  1  0     0  0
 11 12  1  0     0  0
 11 21  2  0     0  0
 12 22  2  0     0  0
 14 20  1  0     0  0
 15 20  2  0     0  0
 15 21  1  0     0  0
 16 23  2  0     0  0
 16 29  1  0     0  0
 17 18  2  0     0  0
 18 23  1  0     0  0
 19 24  2  0     0  0
 19 25  1  0     0  0
 20 22  1  0     0  0
 24 26  1  0     0  0
 25 27  2  0     0  0
 26 28  2  0     0  0
 27 28  1  0     0  0
 30 37  1  0     0  0
 31 34  1  0     0  0
 32 35  1  0     0  0
 36 37  1  0     0  0
M  END
> <standard_type>
pIC50

> <# Confs.>
25

> <canonical_smiles>
COC1=CC2=C(C=C1OCCCN3CCOCC3)N=CN=C2NC4=CNC(C(NC5=CC=CC=C5)=O)=C4

> <standard_relation>
=

> <Publication_ID>
nan

> <predicted_activity_value>
6.6777807052660805

> <actual_activity_value>
6.939302159646388

> <Compound>
35

> <standard_units>
nM

> hash
10170315907782814006

$$$$
35_
XXILIB    08252103423D 0   0.00000     0.00000

 37 41  0     1  0            999 V2000
    1.3663   -0.0000    0.0000 O   0  0  0  0  0  2           0  0  0
    0.2192   -0.0045    2.3367 O   0  0  0  0  0  2           0  0  0
  -10.1608   -2.8197    1.4258 O   0  0  0  0  0  2           0  0  0
    7.9040   -1.0358    1.3041 O   0  0  0  0  0  2           0  0  0
   -8.0194   -1.2542    2.6197 N   0  0  0  0  0  3           0  0  0
   -4.9334   -0.0309   -1.0164 N   0  0  0  0  0  3           0  0  0
   -2.8747   -0.0343   -2.2442 N   0  0  0  0  0  3           0  0  0
   -4.9601    0.0186    1.3670 N   0  0  0  0  0  3           0  0  0
   -9.0057   -2.8288   -0.5729 N   0  0  0  0  0  3           0  0  0
    5.4978   -1.1494   -0.2247 N   0  0  1  0  0  3           0  0  0
    0.0000    0.0000    0.0000 C   0  0  0  0  0  4           0  0  0
   -0.6163   -0.0000    1.2552 C   0  0  0  0  0  4           0  0  0
   -4.2117   -0.0486   -2.1449 C   0  0  0  0  0  4           0  0  0
   -4.2404    0.0192    0.1481 C   0  0  0  0  0  4           0  0  0
   -2.1858   -0.0110   -1.0957 C   0  0  0  0  0  4           0  0  0
   -8.0921   -1.7134    1.3214 C   0  0  0  0  0  4           0  0  0
   -6.8583   -0.5527    2.8161 C   0  0  0  0  0  4           0  0  0
   -6.1637   -0.5559    1.6281 C   0  0  0  0  0  4           0  0  0
   -9.9111   -3.5781   -1.3471 C   0  0  0  0  0  4           0  0  0
   -2.8208    0.0077    0.1610 C   0  0  0  0  0  4           0  0  0
   -0.7936   -0.0112   -1.1541 C   0  0  0  0  0  4           0  0  0
   -2.0142    0.0052    1.3285 C   0  0  0  0  0  4           0  0  0
   -6.9366   -1.2828    0.6884 C   0  0  0  0  0  4           0  0  0
  -11.1125   -4.0718   -0.8255 C   0  0  0  0  0  4           0  0  0
   -9.5871   -3.8277   -2.6859 C   0  0  0  0  0  4           0  0  0
  -11.9791   -4.8061   -1.6387 C   0  0  0  0  0  4           0  0  0
  -10.4569   -4.5612   -3.4947 C   0  0  0  0  0  4           0  0  0
  -11.6516   -5.0511   -2.9710 C   0  0  0  0  0  4           0  0  0
   -9.1767   -2.4914    0.7632 C   0  0  0  0  0  4           0  0  0
    1.9810    0.0000   -1.2890 C   0  0  0  0  0  4           0  0  0
    7.4176    0.1227    0.6268 C   0  0  0  0  0  4           0  0  0
    7.5510   -2.2230    0.5938 C   0  0  0  0  0  4           0  0  0
   -0.4285   -0.0044    3.6064 C   0  0  0  0  0  4           0  0  0
    5.8982    0.0654    0.5030 C   0  0  0  0  0  4           0  0  0
    6.0339   -2.3359    0.4637 C   0  0  0  0  0  4           0  0  0
    4.0395   -1.2085   -0.3548 C   0  0  0  0  0  4           0  0  0
    3.4948   -0.0000   -1.1183 C   0  0  0  0  0  4           0  0  0
  1 11  1  0     0  0
  1 30  1  0     0  0
  2 12  1  0     0  0
  2 33  1  0     0  0
  3 29  2  0     0  0
  4 31  1  0     0  0
  4 32  1  0     0  0
  5 16  1  0     0  0
  5 17  1  0     0  0
  6 13  1  0     0  0
  6 14  2  0     0  0
  7 13  2  0     0  0
  7 15  1  0     0  0
  8 14  1  0     0  0
  8 18  1  0     0  0
  9 19  1  0     0  0
  9 29  1  0     0  0
 10 34  1  0     0  0
 10 35  1  0     0  0
 10 36  1  0     0  0
 11 12  1  0     0  0
 11 21  2  0     0  0
 12 22  2  0     0  0
 14 20  1  0     0  0
 15 20  2  0     0  0
 15 21  1  0     0  0
 16 23  2  0     0  0
 16 29  1  0     0  0
 17 18  2  0     0  0
 18 23  1  0     0  0
 19 24  2  0     0  0
 19 25  1  0     0  0
 20 22  1  0     0  0
 24 26  1  0     0  0
 25 27  2  0     0  0
 26 28  2  0     0  0
 27 28  1  0     0  0
 30 37  1  0     0  0
 31 34  1  0     0  0
 32 35  1  0     0  0
 36 37  1  0     0  0
M  END
> <standard_type>
pIC50

> <# Confs.>
25

> <canonical_smiles>
COC1=CC2=C(C=C1OCCCN3CCOCC3)N=CN=C2NC4=CNC(C(NC5=CC=CC=C5)=O)=C4

> <standard_relation>
=

> <Publication_ID>
nan

> <predicted_activity_value>
6.6777807052660805

> <actual_activity_value>
6.939302159646388

> <Compound>
35

> <standard_units>
nM

> hash
10170315907782814006

$$$$
35_
XXILIB    08252103423D 0   0.00000     0.00000

 37 41  0     1  0            999 V2000
    1.3663   -0.0000    0.0000 O   0  0  0  0  0  2           0  0  0
    0.2192   -0.0045    2.3367 O   0  0  0  0  0  2           0  0  0
  -10.3624    2.4513    1.3095 O   0  0  0  0  0  2           0  0  0
    6.6461    3.2397    2.6833 O   0  0  0  0  0  2           0  0  0
   -8.1082    1.1115    2.5685 N   0  0  0  0  0  3           0  0  0
   -4.9334   -0.0309   -1.0164 N   0  0  0  0  0  3           0  0  0
   -2.8747   -0.0343   -2.2442 N   0  0  0  0  0  3           0  0  0
   -4.9601    0.0186    1.3670 N   0  0  0  0  0  3           0  0  0
   -9.2057    2.4659   -0.6882 N   0  0  0  0  0  3           0  0  0
    4.5398    2.7757    0.8156 N   0  0  1  0  0  3           0  0  0
    0.0000    0.0000    0.0000 C   0  0  0  0  0  4           0  0  0
   -0.6163   -0.0000    1.2552 C   0  0  0  0  0  4           0  0  0
   -4.2117   -0.0486   -2.1449 C   0  0  0  0  0  4           0  0  0
   -4.2404    0.0192    0.1481 C   0  0  0  0  0  4           0  0  0
   -2.1858   -0.0110   -1.0957 C   0  0  0  0  0  4           0  0  0
   -8.2127    1.5080    1.2518 C   0  0  0  0  0  4           0  0  0
   -6.8973    0.5099    2.7937 C   0  0  0  0  0  4           0  0  0
   -6.2029    0.5138    1.6054 C   0  0  0  0  0  4           0  0  0
  -10.1650    3.1074   -1.4936 C   0  0  0  0  0  4           0  0  0
   -2.8208    0.0077    0.1610 C   0  0  0  0  0  4           0  0  0
   -0.7936   -0.0112   -1.1541 C   0  0  0  0  0  4           0  0  0
   -2.0142    0.0052    1.3285 C   0  0  0  0  0  4           0  0  0
   -7.0262    1.1405    0.6368 C   0  0  0  0  0  4           0  0  0
  -11.4032    3.5266   -0.9932 C   0  0  0  0  0  4           0  0  0
   -9.8547    3.3308   -2.8402 C   0  0  0  0  0  4           0  0  0
  -12.3185    4.1638   -1.8344 C   0  0  0  0  0  4           0  0  0
  -10.7724    3.9689   -3.6766 C   0  0  0  0  0  4           0  0  0
  -12.0040    4.3840   -3.1742 C   0  0  0  0  0  4           0  0  0
   -9.3535    2.1736    0.6613 C   0  0  0  0  0  4           0  0  0
    1.9810    0.6445   -1.1163 C   0  0  0  0  0  4           0  0  0
    5.7906    4.3060    2.2726 C   0  0  0  0  0  4           0  0  0
    6.8042    2.2846    1.6338 C   0  0  0  0  0  4           0  0  0
   -0.4285   -0.0044    3.6064 C   0  0  0  0  0  4           0  0  0
    4.4142    3.7664    1.8965 C   0  0  0  0  0  4           0  0  0
    5.4512    1.6985    1.2373 C   0  0  0  0  0  4           0  0  0
    3.2208    2.2577    0.4430 C   0  0  0  0  0  4           0  0  0
    3.3207    1.2242   -0.6804 C   0  0  0  0  0  4           0  0  0
  1 11  1  0     0  0
  1 30  1  0     0  0
  2 12  1  0     0  0
  2 33  1  0     0  0
  3 29  2  0     0  0
  4 31  1  0     0  0
  4 32  1  0     0  0
  5 16  1  0     0  0
  5 17  1  0     0  0
  6 13  1  0     0  0
  6 14  2  0     0  0
  7 13  2  0     0  0
  7 15  1  0     0  0
  8 14  1  0     0  0
  8 18  1  0     0  0
  9 19  1  0     0  0
  9 29  1  0     0  0
 10 34  1  0     0  0
 10 35  1  0     0  0
 10 36  1  0     0  0
 11 12  1  0     0  0
 11 21  2  0     0  0
 12 22  2  0     0  0
 14 20  1  0     0  0
 15 20  2  0     0  0
 15 21  1  0     0  0
 16 23  2  0     0  0
 16 29  1  0     0  0
 17 18  2  0     0  0
 18 23  1  0     0  0
 19 24  2  0     0  0
 19 25  1  0     0  0
 20 22  1  0     0  0
 24 26  1  0     0  0
 25 27  2  0     0  0
 26 28  2  0     0  0
 27 28  1  0     0  0
 30 37  1  0     0  0
 31 34  1  0     0  0
 32 35  1  0     0  0
 36 37  1  0     0  0
M  END
> <standard_type>
pIC50

> <# Confs.>
25

> <canonical_smiles>
COC1=CC2=C(C=C1OCCCN3CCOCC3)N=CN=C2NC4=CNC(C(NC5=CC=CC=C5)=O)=C4

> <standard_relation>
=

> <Publication_ID>
nan

> <predicted_activity_value>
6.6777807052660805

> <actual_activity_value>
6.939302159646388

> <Compound>
35

> <standard_units>
nM

> hash
10170315907782814006

$$$$
35_
XXILIB    08252103423D 0   0.00000     0.00000

 37 41  0     1  0            999 V2000
    1.3663    0.0000   -0.0000 O   0  0  0  0  0  2           0  0  0
    0.2192   -0.0045    2.3367 O   0  0  0  0  0  2           0  0  0
  -10.1608   -2.8197    1.4258 O   0  0  0  0  0  2           0  0  0
    2.9449   -5.8391   -2.9156 O   0  0  0  0  0  2           0  0  0
   -8.0194   -1.2542    2.6197 N   0  0  0  0  0  3           0  0  0
   -4.9334   -0.0309   -1.0164 N   0  0  0  0  0  3           0  0  0
   -2.8747   -0.0343   -2.2442 N   0  0  0  0  0  3           0  0  0
   -4.9601    0.0186    1.3670 N   0  0  0  0  0  3           0  0  0
   -9.0057   -2.8288   -0.5729 N   0  0  0  0  0  3           0  0  0
    3.3141   -3.0714   -2.3294 N   0  0  1  0  0  3           0  0  0
    0.0000    0.0000    0.0000 C   0  0  0  0  0  4           0  0  0
   -0.6163   -0.0000    1.2552 C   0  0  0  0  0  4           0  0  0
   -4.2117   -0.0486   -2.1449 C   0  0  0  0  0  4           0  0  0
   -4.2404    0.0192    0.1481 C   0  0  0  0  0  4           0  0  0
   -2.1858   -0.0110   -1.0957 C   0  0  0  0  0  4           0  0  0
   -8.0921   -1.7134    1.3214 C   0  0  0  0  0  4           0  0  0
   -6.8583   -0.5527    2.8161 C   0  0  0  0  0  4           0  0  0
   -6.1637   -0.5559    1.6281 C   0  0  0  0  0  4           0  0  0
   -9.9111   -3.5781   -1.3471 C   0  0  0  0  0  4           0  0  0
   -2.8208    0.0077    0.1610 C   0  0  0  0  0  4           0  0  0
   -0.7936   -0.0112   -1.1541 C   0  0  0  0  0  4           0  0  0
   -2.0142    0.0052    1.3285 C   0  0  0  0  0  4           0  0  0
   -6.9366   -1.2828    0.6884 C   0  0  0  0  0  4           0  0  0
  -11.1125   -4.0718   -0.8255 C   0  0  0  0  0  4           0  0  0
   -9.5871   -3.8277   -2.6859 C   0  0  0  0  0  4           0  0  0
  -11.9791   -4.8061   -1.6387 C   0  0  0  0  0  4           0  0  0
  -10.4569   -4.5612   -3.4947 C   0  0  0  0  0  4           0  0  0
  -11.6516   -5.0511   -2.9710 C   0  0  0  0  0  4           0  0  0
   -9.1767   -2.4914    0.7632 C   0  0  0  0  0  4           0  0  0
    1.9810   -0.6445   -1.1163 C   0  0  0  0  0  4           0  0  0
    3.2590   -4.9116   -3.9542 C   0  0  0  0  0  4           0  0  0
    2.1835   -5.2076   -1.8861 C   0  0  0  0  0  4           0  0  0
   -0.4285   -0.0044    3.6064 C   0  0  0  0  0  4           0  0  0
    4.0701   -3.7462   -3.3965 C   0  0  0  0  0  4           0  0  0
    2.9660   -4.0448   -1.2804 C   0  0  0  0  0  4           0  0  0
    4.0833   -1.9455   -1.7932 C   0  0  0  0  0  4           0  0  0
    3.3207   -1.2242   -0.6804 C   0  0  0  0  0  4           0  0  0
  1 11  1  0     0  0
  1 30  1  0     0  0
  2 12  1  0     0  0
  2 33  1  0     0  0
  3 29  2  0     0  0
  4 31  1  0     0  0
  4 32  1  0     0  0
  5 16  1  0     0  0
  5 17  1  0     0  0
  6 13  1  0     0  0
  6 14  2  0     0  0
  7 13  2  0     0  0
  7 15  1  0     0  0
  8 14  1  0     0  0
  8 18  1  0     0  0
  9 19  1  0     0  0
  9 29  1  0     0  0
 10 34  1  0     0  0
 10 35  1  0     0  0
 10 36  1  0     0  0
 11 12  1  0     0  0
 11 21  2  0     0  0
 12 22  2  0     0  0
 14 20  1  0     0  0
 15 20  2  0     0  0
 15 21  1  0     0  0
 16 23  2  0     0  0
 16 29  1  0     0  0
 17 18  2  0     0  0
 18 23  1  0     0  0
 19 24  2  0     0  0
 19 25  1  0     0  0
 20 22  1  0     0  0
 24 26  1  0     0  0
 25 27  2  0     0  0
 26 28  2  0     0  0
 27 28  1  0     0  0
 30 37  1  0     0  0
 31 34  1  0     0  0
 32 35  1  0     0  0
 36 37  1  0     0  0
M  END
> <standard_type>
pIC50

> <# Confs.>
25

> <canonical_smiles>
COC1=CC2=C(C=C1OCCCN3CCOCC3)N=CN=C2NC4=CNC(C(NC5=CC=CC=C5)=O)=C4

> <standard_relation>
=

> <Publication_ID>
nan

> <predicted_activity_value>
6.6777807052660805

> <actual_activity_value>
6.939302159646388

> <Compound>
35

> <standard_units>
nM

> hash
10170315907782814006

$$$$
35_
XXILIB    08252103423D 0   0.00000     0.00000

 37 41  0     1  0            999 V2000
    1.3663   -0.0000    0.0000 O   0  0  0  0  0  2           0  0  0
    0.2192   -0.0045    2.3367 O   0  0  0  0  0  2           0  0  0
  -10.3624    2.4513    1.3095 O   0  0  0  0  0  2           0  0  0
    4.6765    0.8073   -5.7766 O   0  0  0  0  0  2           0  0  0
   -8.1082    1.1115    2.5685 N   0  0  0  0  0  3           0  0  0
   -4.9334   -0.0309   -1.0164 N   0  0  0  0  0  3           0  0  0
   -2.8747   -0.0343   -2.2442 N   0  0  0  0  0  3           0  0  0
   -4.9601    0.0186    1.3670 N   0  0  0  0  0  3           0  0  0
   -9.2057    2.4659   -0.6882 N   0  0  0  0  0  3           0  0  0
    3.9612   -0.5999   -3.4000 N   0  0  1  0  0  3           0  0  0
    0.0000    0.0000    0.0000 C   0  0  0  0  0  4           0  0  0
   -0.6163   -0.0000    1.2552 C   0  0  0  0  0  4           0  0  0
   -4.2117   -0.0486   -2.1449 C   0  0  0  0  0  4           0  0  0
   -4.2404    0.0192    0.1481 C   0  0  0  0  0  4           0  0  0
   -2.1858   -0.0110   -1.0957 C   0  0  0  0  0  4           0  0  0
   -8.2127    1.5080    1.2518 C   0  0  0  0  0  4           0  0  0
   -6.8973    0.5099    2.7937 C   0  0  0  0  0  4           0  0  0
   -6.2029    0.5138    1.6054 C   0  0  0  0  0  4           0  0  0
  -10.1650    3.1074   -1.4936 C   0  0  0  0  0  4           0  0  0
   -2.8208    0.0077    0.1610 C   0  0  0  0  0  4           0  0  0
   -0.7936   -0.0112   -1.1541 C   0  0  0  0  0  4           0  0  0
   -2.0142    0.0052    1.3285 C   0  0  0  0  0  4           0  0  0
   -7.0262    1.1405    0.6368 C   0  0  0  0  0  4           0  0  0
  -11.4032    3.5266   -0.9932 C   0  0  0  0  0  4           0  0  0
   -9.8547    3.3308   -2.8402 C   0  0  0  0  0  4           0  0  0
  -12.3185    4.1638   -1.8344 C   0  0  0  0  0  4           0  0  0
  -10.7724    3.9689   -3.6766 C   0  0  0  0  0  4           0  0  0
  -12.0040    4.3840   -3.1742 C   0  0  0  0  0  4           0  0  0
   -9.3535    2.1736    0.6613 C   0  0  0  0  0  4           0  0  0
    1.9810   -0.6445   -1.1163 C   0  0  0  0  0  4           0  0  0
    3.9706    1.4668   -4.7258 C   0  0  0  0  0  4           0  0  0
    4.3286   -0.5765   -5.8296 C   0  0  0  0  0  4           0  0  0
   -0.4285   -0.0044    3.6064 C   0  0  0  0  0  4           0  0  0
    4.3066    0.8305   -3.3808 C   0  0  0  0  0  4           0  0  0
    4.6683   -1.2631   -4.5087 C   0  0  0  0  0  4           0  0  0
    4.2740   -1.2174   -2.1086 C   0  0  0  0  0  4           0  0  0
    3.4948   -0.5592   -0.9685 C   0  0  0  0  0  4           0  0  0
  1 11  1  0     0  0
  1 30  1  0     0  0
  2 12  1  0     0  0
  2 33  1  0     0  0
  3 29  2  0     0  0
  4 31  1  0     0  0
  4 32  1  0     0  0
  5 16  1  0     0  0
  5 17  1  0     0  0
  6 13  1  0     0  0
  6 14  2  0     0  0
  7 13  2  0     0  0
  7 15  1  0     0  0
  8 14  1  0     0  0
  8 18  1  0     0  0
  9 19  1  0     0  0
  9 29  1  0     0  0
 10 34  1  0     0  0
 10 35  1  0     0  0
 10 36  1  0     0  0
 11 12  1  0     0  0
 11 21  2  0     0  0
 12 22  2  0     0  0
 14 20  1  0     0  0
 15 20  2  0     0  0
 15 21  1  0     0  0
 16 23  2  0     0  0
 16 29  1  0     0  0
 17 18  2  0     0  0
 18 23  1  0     0  0
 19 24  2  0     0  0
 19 25  1  0     0  0
 20 22  1  0     0  0
 24 26  1  0     0  0
 25 27  2  0     0  0
 26 28  2  0     0  0
 27 28  1  0     0  0
 30 37  1  0     0  0
 31 34  1  0     0  0
 32 35  1  0     0  0
 36 37  1  0     0  0
M  END
> <standard_type>
pIC50

> <# Confs.>
25

> <canonical_smiles>
COC1=CC2=C(C=C1OCCCN3CCOCC3)N=CN=C2NC4=CNC(C(NC5=CC=CC=C5)=O)=C4

> <standard_relation>
=

> <Publication_ID>
nan

> <predicted_activity_value>
6.6777807052660805

> <actual_activity_value>
6.939302159646388

> <Compound>
35

> <standard_units>
nM

> hash
10170315907782814006

$$$$
35_
XXILIB    08252103423D 0   0.00000     0.00000

 37 41  0     1  0            999 V2000
    1.3663   -0.0000   -0.0000 O   0  0  0  0  0  2           0  0  0
    0.2192   -0.0045    2.3367 O   0  0  0  0  0  2           0  0  0
  -10.1608   -2.8197    1.4258 O   0  0  0  0  0  2           0  0  0
    6.1728   -0.2947   -4.6796 O   0  0  0  0  0  2           0  0  0
   -8.0194   -1.2542    2.6197 N   0  0  0  0  0  3           0  0  0
   -4.9334   -0.0309   -1.0164 N   0  0  0  0  0  3           0  0  0
   -2.8747   -0.0343   -2.2442 N   0  0  0  0  0  3           0  0  0
   -4.9601    0.0186    1.3670 N   0  0  0  0  0  3           0  0  0
   -9.0057   -2.8288   -0.5729 N   0  0  0  0  0  3           0  0  0
    4.3796    1.0466   -2.9117 N   0  0  1  0  0  3           0  0  0
    0.0000    0.0000    0.0000 C   0  0  0  0  0  4           0  0  0
   -0.6163   -0.0000    1.2552 C   0  0  0  0  0  4           0  0  0
   -4.2117   -0.0486   -2.1449 C   0  0  0  0  0  4           0  0  0
   -4.2404    0.0192    0.1481 C   0  0  0  0  0  4           0  0  0
   -2.1858   -0.0110   -1.0957 C   0  0  0  0  0  4           0  0  0
   -8.0921   -1.7134    1.3214 C   0  0  0  0  0  4           0  0  0
   -6.8583   -0.5527    2.8161 C   0  0  0  0  0  4           0  0  0
   -6.1637   -0.5559    1.6281 C   0  0  0  0  0  4           0  0  0
   -9.9111   -3.5781   -1.3471 C   0  0  0  0  0  4           0  0  0
   -2.8208    0.0077    0.1610 C   0  0  0  0  0  4           0  0  0
   -0.7936   -0.0112   -1.1541 C   0  0  0  0  0  4           0  0  0
   -2.0142    0.0052    1.3285 C   0  0  0  0  0  4           0  0  0
   -6.9366   -1.2828    0.6884 C   0  0  0  0  0  4           0  0  0
  -11.1125   -4.0718   -0.8255 C   0  0  0  0  0  4           0  0  0
   -9.5871   -3.8277   -2.6859 C   0  0  0  0  0  4           0  0  0
  -11.9791   -4.8061   -1.6387 C   0  0  0  0  0  4           0  0  0
  -10.4569   -4.5612   -3.4947 C   0  0  0  0  0  4           0  0  0
  -11.6516   -5.0511   -2.9710 C   0  0  0  0  0  4           0  0  0
   -9.1767   -2.4914    0.7632 C   0  0  0  0  0  4           0  0  0
    1.9810    0.6445   -1.1163 C   0  0  0  0  0  4           0  0  0
    5.4097    0.8246   -5.1295 C   0  0  0  0  0  4           0  0  0
    5.4619   -1.0222   -3.6777 C   0  0  0  0  0  4           0  0  0
   -0.4285   -0.0044    3.6064 C   0  0  0  0  0  4           0  0  0
    5.1125    1.7655   -3.9661 C   0  0  0  0  0  4           0  0  0
    5.1603   -0.1250   -2.4796 C   0  0  0  0  0  4           0  0  0
    4.0833    1.9455   -1.7932 C   0  0  0  0  0  4           0  0  0
    3.3207    1.2242   -0.6804 C   0  0  0  0  0  4           0  0  0
  1 11  1  0     0  0
  1 30  1  0     0  0
  2 12  1  0     0  0
  2 33  1  0     0  0
  3 29  2  0     0  0
  4 31  1  0     0  0
  4 32  1  0     0  0
  5 16  1  0     0  0
  5 17  1  0     0  0
  6 13  1  0     0  0
  6 14  2  0     0  0
  7 13  2  0     0  0
  7 15  1  0     0  0
  8 14  1  0     0  0
  8 18  1  0     0  0
  9 19  1  0     0  0
  9 29  1  0     0  0
 10 34  1  0     0  0
 10 35  1  0     0  0
 10 36  1  0     0  0
 11 12  1  0     0  0
 11 21  2  0     0  0
 12 22  2  0     0  0
 14 20  1  0     0  0
 15 20  2  0     0  0
 15 21  1  0     0  0
 16 23  2  0     0  0
 16 29  1  0     0  0
 17 18  2  0     0  0
 18 23  1  0     0  0
 19 24  2  0     0  0
 19 25  1  0     0  0
 20 22  1  0     0  0
 24 26  1  0     0  0
 25 27  2  0     0  0
 26 28  2  0     0  0
 27 28  1  0     0  0
 30 37  1  0     0  0
 31 34  1  0     0  0
 32 35  1  0     0  0
 36 37  1  0     0  0
M  END
> <standard_type>
pIC50

> <# Confs.>
25

> <canonical_smiles>
COC1=CC2=C(C=C1OCCCN3CCOCC3)N=CN=C2NC4=CNC(C(NC5=CC=CC=C5)=O)=C4

> <standard_relation>
=

> <Publication_ID>
nan

> <predicted_activity_value>
6.6777807052660805

> <actual_activity_value>
6.939302159646388

> <Compound>
35

> <standard_units>
nM

> hash
10170315907782814006

$$$$
35_
XXILIB    08252103423D 0   0.00000     0.00000

 37 41  0     1  0            999 V2000
    1.3663   -0.0000   -0.0000 O   0  0  0  0  0  2           0  0  0
    0.2192   -0.0045    2.3367 O   0  0  0  0  0  2           0  0  0
   -8.4257   -4.6638    2.4494 O   0  0  0  0  0  2           0  0  0
    4.6765    3.5874   -4.5991 O   0  0  0  0  0  2           0  0  0
   -7.2413   -2.0826    3.0787 N   0  0  0  0  0  3           0  0  0
   -4.9334   -0.0309   -1.0164 N   0  0  0  0  0  3           0  0  0
   -2.8747   -0.0343   -2.2442 N   0  0  0  0  0  3           0  0  0
   -4.9601    0.0186    1.3670 N   0  0  0  0  0  3           0  0  0
   -7.2637   -4.6824    0.4547 N   0  0  0  0  0  3           0  0  0
    3.9612    1.1805   -3.2444 N   0  0  1  0  0  3           0  0  0
    0.0000    0.0000    0.0000 C   0  0  0  0  0  4           0  0  0
   -0.6163   -0.0000    1.2552 C   0  0  0  0  0  4           0  0  0
   -4.2117   -0.0486   -2.1449 C   0  0  0  0  0  4           0  0  0
   -4.2404    0.0192    0.1481 C   0  0  0  0  0  4           0  0  0
   -2.1858   -0.0110   -1.0957 C   0  0  0  0  0  4           0  0  0
   -7.0326   -2.8416    1.9463 C   0  0  0  0  0  4           0  0  0
   -6.5091   -0.9252    3.0221 C   0  0  0  0  0  4           0  0  0
   -5.8122   -0.9308    1.8354 C   0  0  0  0  0  4           0  0  0
   -7.7110   -5.9179   -0.0493 C   0  0  0  0  0  4           0  0  0
   -2.8208    0.0077    0.1610 C   0  0  0  0  0  4           0  0  0
   -0.7936   -0.0112   -1.1541 C   0  0  0  0  0  4           0  0  0
   -2.0142    0.0052    1.3285 C   0  0  0  0  0  4           0  0  0
   -6.1400   -2.1320    1.1583 C   0  0  0  0  0  4           0  0  0
   -8.6112   -6.7301    0.6500 C   0  0  0  0  0  4           0  0  0
   -7.2329   -6.3348   -1.2972 C   0  0  0  0  0  4           0  0  0
   -9.0277   -7.9459    0.1023 C   0  0  0  0  0  4           0  0  0
   -7.6529   -7.5501   -1.8407 C   0  0  0  0  0  4           0  0  0
   -8.5488   -8.3557   -1.1408 C   0  0  0  0  0  4           0  0  0
   -7.6417   -4.1242    1.6687 C   0  0  0  0  0  4           0  0  0
    1.9810    0.0000   -1.2890 C   0  0  0  0  0  4           0  0  0
    3.9706    3.6332   -3.3593 C   0  0  0  0  0  4           0  0  0
    4.3286    2.4156   -5.3368 C   0  0  0  0  0  4           0  0  0
   -0.4285   -0.0044    3.6064 C   0  0  0  0  0  4           0  0  0
    4.3066    2.4096   -2.5126 C   0  0  0  0  0  4           0  0  0
    4.6683    1.1605   -4.5362 C   0  0  0  0  0  4           0  0  0
    4.2740    0.0000   -2.4348 C   0  0  0  0  0  4           0  0  0
    3.4948   -0.0000   -1.1183 C   0  0  0  0  0  4           0  0  0
  1 11  1  0     0  0
  1 30  1  0     0  0
  2 12  1  0     0  0
  2 33  1  0     0  0
  3 29  2  0     0  0
  4 31  1  0     0  0
  4 32  1  0     0  0
  5 16  1  0     0  0
  5 17  1  0     0  0
  6 13  1  0     0  0
  6 14  2  0     0  0
  7 13  2  0     0  0
  7 15  1  0     0  0
  8 14  1  0     0  0
  8 18  1  0     0  0
  9 19  1  0     0  0
  9 29  1  0     0  0
 10 34  1  0     0  0
 10 35  1  0     0  0
 10 36  1  0     0  0
 11 12  1  0     0  0
 11 21  2  0     0  0
 12 22  2  0     0  0
 14 20  1  0     0  0
 15 20  2  0     0  0
 15 21  1  0     0  0
 16 23  2  0     0  0
 16 29  1  0     0  0
 17 18  2  0     0  0
 18 23  1  0     0  0
 19 24  2  0     0  0
 19 25  1  0     0  0
 20 22  1  0     0  0
 24 26  1  0     0  0
 25 27  2  0     0  0
 26 28  2  0     0  0
 27 28  1  0     0  0
 30 37  1  0     0  0
 31 34  1  0     0  0
 32 35  1  0     0  0
 36 37  1  0     0  0
M  END
> <standard_type>
pIC50

> <# Confs.>
25

> <canonical_smiles>
COC1=CC2=C(C=C1OCCCN3CCOCC3)N=CN=C2NC4=CNC(C(NC5=CC=CC=C5)=O)=C4

> <standard_relation>
=

> <Publication_ID>
nan

> <predicted_activity_value>
6.6777807052660805

> <actual_activity_value>
6.939302159646388

> <Compound>
35

> <standard_units>
nM

> hash
10170315907782814006

$$$$
35_
XXILIB    08252103423D 0   0.00000     0.00000

 37 41  0     1  0            999 V2000
    1.3663   -0.0000    0.0000 O   0  0  0  0  0  2           0  0  0
    0.2192   -0.0045    2.3367 O   0  0  0  0  0  2           0  0  0
  -10.3624    2.4513    1.3095 O   0  0  0  0  0  2           0  0  0
    7.9040   -1.0358    1.3041 O   0  0  0  0  0  2           0  0  0
   -8.1082    1.1115    2.5685 N   0  0  0  0  0  3           0  0  0
   -4.9334   -0.0309   -1.0164 N   0  0  0  0  0  3           0  0  0
   -2.8747   -0.0343   -2.2442 N   0  0  0  0  0  3           0  0  0
   -4.9601    0.0186    1.3670 N   0  0  0  0  0  3           0  0  0
   -9.2057    2.4659   -0.6882 N   0  0  0  0  0  3           0  0  0
    5.4978   -1.1494   -0.2247 N   0  0  1  0  0  3           0  0  0
    0.0000    0.0000    0.0000 C   0  0  0  0  0  4           0  0  0
   -0.6163   -0.0000    1.2552 C   0  0  0  0  0  4           0  0  0
   -4.2117   -0.0486   -2.1449 C   0  0  0  0  0  4           0  0  0
   -4.2404    0.0192    0.1481 C   0  0  0  0  0  4           0  0  0
   -2.1858   -0.0110   -1.0957 C   0  0  0  0  0  4           0  0  0
   -8.2127    1.5080    1.2518 C   0  0  0  0  0  4           0  0  0
   -6.8973    0.5099    2.7937 C   0  0  0  0  0  4           0  0  0
   -6.2029    0.5138    1.6054 C   0  0  0  0  0  4           0  0  0
  -10.1650    3.1074   -1.4936 C   0  0  0  0  0  4           0  0  0
   -2.8208    0.0077    0.1610 C   0  0  0  0  0  4           0  0  0
   -0.7936   -0.0112   -1.1541 C   0  0  0  0  0  4           0  0  0
   -2.0142    0.0052    1.3285 C   0  0  0  0  0  4           0  0  0
   -7.0262    1.1405    0.6368 C   0  0  0  0  0  4           0  0  0
  -11.4032    3.5266   -0.9932 C   0  0  0  0  0  4           0  0  0
   -9.8547    3.3308   -2.8402 C   0  0  0  0  0  4           0  0  0
  -12.3185    4.1638   -1.8344 C   0  0  0  0  0  4           0  0  0
  -10.7724    3.9689   -3.6766 C   0  0  0  0  0  4           0  0  0
  -12.0040    4.3840   -3.1742 C   0  0  0  0  0  4           0  0  0
   -9.3535    2.1736    0.6613 C   0  0  0  0  0  4           0  0  0
    1.9810    0.0000   -1.2890 C   0  0  0  0  0  4           0  0  0
    7.4176    0.1227    0.6268 C   0  0  0  0  0  4           0  0  0
    7.5510   -2.2230    0.5938 C   0  0  0  0  0  4           0  0  0
   -0.4285   -0.0044    3.6064 C   0  0  0  0  0  4           0  0  0
    5.8982    0.0654    0.5030 C   0  0  0  0  0  4           0  0  0
    6.0339   -2.3359    0.4637 C   0  0  0  0  0  4           0  0  0
    4.0395   -1.2085   -0.3548 C   0  0  0  0  0  4           0  0  0
    3.4948   -0.0000   -1.1183 C   0  0  0  0  0  4           0  0  0
  1 11  1  0     0  0
  1 30  1  0     0  0
  2 12  1  0     0  0
  2 33  1  0     0  0
  3 29  2  0     0  0
  4 31  1  0     0  0
  4 32  1  0     0  0
  5 16  1  0     0  0
  5 17  1  0     0  0
  6 13  1  0     0  0
  6 14  2  0     0  0
  7 13  2  0     0  0
  7 15  1  0     0  0
  8 14  1  0     0  0
  8 18  1  0     0  0
  9 19  1  0     0  0
  9 29  1  0     0  0
 10 34  1  0     0  0
 10 35  1  0     0  0
 10 36  1  0     0  0
 11 12  1  0     0  0
 11 21  2  0     0  0
 12 22  2  0     0  0
 14 20  1  0     0  0
 15 20  2  0     0  0
 15 21  1  0     0  0
 16 23  2  0     0  0
 16 29  1  0     0  0
 17 18  2  0     0  0
 18 23  1  0     0  0
 19 24  2  0     0  0
 19 25  1  0     0  0
 20 22  1  0     0  0
 24 26  1  0     0  0
 25 27  2  0     0  0
 26 28  2  0     0  0
 27 28  1  0     0  0
 30 37  1  0     0  0
 31 34  1  0     0  0
 32 35  1  0     0  0
 36 37  1  0     0  0
M  END
> <standard_type>
pIC50

> <# Confs.>
25

> <canonical_smiles>
COC1=CC2=C(C=C1OCCCN3CCOCC3)N=CN=C2NC4=CNC(C(NC5=CC=CC=C5)=O)=C4

> <standard_relation>
=

> <Publication_ID>
nan

> <predicted_activity_value>
6.6777807052660805

> <actual_activity_value>
6.939302159646388

> <Compound>
35

> <standard_units>
nM

> hash
10170315907782814006

$$$$
35_
XXILIB    08252103423D 0   0.00000     0.00000

 37 41  0     1  0            999 V2000
    1.3663   -0.0000   -0.0000 O   0  0  0  0  0  2           0  0  0
    0.2192   -0.0045    2.3367 O   0  0  0  0  0  2           0  0  0
  -10.3624    2.4513    1.3095 O   0  0  0  0  0  2           0  0  0
    6.1728   -0.2947   -4.6796 O   0  0  0  0  0  2           0  0  0
   -8.1082    1.1115    2.5685 N   0  0  0  0  0  3           0  0  0
   -4.9334   -0.0309   -1.0164 N   0  0  0  0  0  3           0  0  0
   -2.8747   -0.0343   -2.2442 N   0  0  0  0  0  3           0  0  0
   -4.9601    0.0186    1.3670 N   0  0  0  0  0  3           0  0  0
   -9.2057    2.4659   -0.6882 N   0  0  0  0  0  3           0  0  0
    4.3796    1.0466   -2.9117 N   0  0  1  0  0  3           0  0  0
    0.0000    0.0000    0.0000 C   0  0  0  0  0  4           0  0  0
   -0.6163   -0.0000    1.2552 C   0  0  0  0  0  4           0  0  0
   -4.2117   -0.0486   -2.1449 C   0  0  0  0  0  4           0  0  0
   -4.2404    0.0192    0.1481 C   0  0  0  0  0  4           0  0  0
   -2.1858   -0.0110   -1.0957 C   0  0  0  0  0  4           0  0  0
   -8.2127    1.5080    1.2518 C   0  0  0  0  0  4           0  0  0
   -6.8973    0.5099    2.7937 C   0  0  0  0  0  4           0  0  0
   -6.2029    0.5138    1.6054 C   0  0  0  0  0  4           0  0  0
  -10.1650    3.1074   -1.4936 C   0  0  0  0  0  4           0  0  0
   -2.8208    0.0077    0.1610 C   0  0  0  0  0  4           0  0  0
   -0.7936   -0.0112   -1.1541 C   0  0  0  0  0  4           0  0  0
   -2.0142    0.0052    1.3285 C   0  0  0  0  0  4           0  0  0
   -7.0262    1.1405    0.6368 C   0  0  0  0  0  4           0  0  0
  -11.4032    3.5266   -0.9932 C   0  0  0  0  0  4           0  0  0
   -9.8547    3.3308   -2.8402 C   0  0  0  0  0  4           0  0  0
  -12.3185    4.1638   -1.8344 C   0  0  0  0  0  4           0  0  0
  -10.7724    3.9689   -3.6766 C   0  0  0  0  0  4           0  0  0
  -12.0040    4.3840   -3.1742 C   0  0  0  0  0  4           0  0  0
   -9.3535    2.1736    0.6613 C   0  0  0  0  0  4           0  0  0
    1.9810    0.6445   -1.1163 C   0  0  0  0  0  4           0  0  0
    5.4097    0.8246   -5.1295 C   0  0  0  0  0  4           0  0  0
    5.4619   -1.0222   -3.6777 C   0  0  0  0  0  4           0  0  0
   -0.4285   -0.0044    3.6064 C   0  0  0  0  0  4           0  0  0
    5.1125    1.7655   -3.9661 C   0  0  0  0  0  4           0  0  0
    5.1603   -0.1250   -2.4796 C   0  0  0  0  0  4           0  0  0
    4.0833    1.9455   -1.7932 C   0  0  0  0  0  4           0  0  0
    3.3207    1.2242   -0.6804 C   0  0  0  0  0  4           0  0  0
  1 11  1  0     0  0
  1 30  1  0     0  0
  2 12  1  0     0  0
  2 33  1  0     0  0
  3 29  2  0     0  0
  4 31  1  0     0  0
  4 32  1  0     0  0
  5 16  1  0     0  0
  5 17  1  0     0  0
  6 13  1  0     0  0
  6 14  2  0     0  0
  7 13  2  0     0  0
  7 15  1  0     0  0
  8 14  1  0     0  0
  8 18  1  0     0  0
  9 19  1  0     0  0
  9 29  1  0     0  0
 10 34  1  0     0  0
 10 35  1  0     0  0
 10 36  1  0     0  0
 11 12  1  0     0  0
 11 21  2  0     0  0
 12 22  2  0     0  0
 14 20  1  0     0  0
 15 20  2  0     0  0
 15 21  1  0     0  0
 16 23  2  0     0  0
 16 29  1  0     0  0
 17 18  2  0     0  0
 18 23  1  0     0  0
 19 24  2  0     0  0
 19 25  1  0     0  0
 20 22  1  0     0  0
 24 26  1  0     0  0
 25 27  2  0     0  0
 26 28  2  0     0  0
 27 28  1  0     0  0
 30 37  1  0     0  0
 31 34  1  0     0  0
 32 35  1  0     0  0
 36 37  1  0     0  0
M  END
> <standard_type>
pIC50

> <# Confs.>
25

> <canonical_smiles>
COC1=CC2=C(C=C1OCCCN3CCOCC3)N=CN=C2NC4=CNC(C(NC5=CC=CC=C5)=O)=C4

> <standard_relation>
=

> <Publication_ID>
nan

> <predicted_activity_value>
6.6777807052660805

> <actual_activity_value>
6.939302159646388

> <Compound>
35

> <standard_units>
nM

> hash
10170315907782814006

$$$$
35_
XXILIB    08252103423D 0   0.00000     0.00000

 37 41  0     1  0            999 V2000
    1.3663   -0.0000   -0.0000 O   0  0  0  0  0  2           0  0  0
    0.2192   -0.0045    2.3367 O   0  0  0  0  0  2           0  0  0
   -8.7749    4.4658    2.2479 O   0  0  0  0  0  2           0  0  0
    4.6803   -3.5761   -4.6170 O   0  0  0  0  0  2           0  0  0
   -7.3951    2.0149    2.9900 N   0  0  0  0  0  3           0  0  0
   -4.9334   -0.0309   -1.0164 N   0  0  0  0  0  3           0  0  0
   -2.8747   -0.0343   -2.2442 N   0  0  0  0  0  3           0  0  0
   -4.9601    0.0186    1.3670 N   0  0  0  0  0  3           0  0  0
   -7.6100    4.4884    0.2550 N   0  0  0  0  0  3           0  0  0
    3.9612   -1.1805   -3.2444 N   0  0  1  0  0  3           0  0  0
    0.0000    0.0000    0.0000 C   0  0  0  0  0  4           0  0  0
   -0.6163   -0.0000    1.2552 C   0  0  0  0  0  4           0  0  0
   -4.2117   -0.0486   -2.1449 C   0  0  0  0  0  4           0  0  0
   -4.2404    0.0192    0.1481 C   0  0  0  0  0  4           0  0  0
   -2.1858   -0.0110   -1.0957 C   0  0  0  0  0  4           0  0  0
   -7.2416    2.7381    1.8258 C   0  0  0  0  0  4           0  0  0
   -6.5767    0.9154    2.9832 C   0  0  0  0  0  4           0  0  0
   -5.8802    0.9219    1.7962 C   0  0  0  0  0  4           0  0  0
   -8.1508    5.6618   -0.3030 C   0  0  0  0  0  4           0  0  0
   -2.8208    0.0077    0.1610 C   0  0  0  0  0  4           0  0  0
   -0.7936   -0.0112   -1.1541 C   0  0  0  0  0  4           0  0  0
   -2.0142    0.0052    1.3285 C   0  0  0  0  0  4           0  0  0
   -6.2952    2.0654    1.0689 C   0  0  0  0  0  4           0  0  0
   -9.1147    6.4306    0.3595 C   0  0  0  0  0  4           0  0  0
   -7.6965    6.0640   -1.5644 C   0  0  0  0  0  4           0  0  0
   -9.6156    7.5904   -0.2367 C   0  0  0  0  0  4           0  0  0
   -8.1994    7.2244   -2.1557 C   0  0  0  0  0  4           0  0  0
   -9.1592    7.9864   -1.4927 C   0  0  0  0  0  4           0  0  0
   -7.9479    3.9558    1.4921 C   0  0  0  0  0  4           0  0  0
    1.9810    0.0000   -1.2890 C   0  0  0  0  0  4           0  0  0
    4.3858   -2.3828   -5.3428 C   0  0  0  0  0  4           0  0  0
    3.9246   -3.6321   -3.4069 C   0  0  0  0  0  4           0  0  0
   -0.4285   -0.0044    3.6064 C   0  0  0  0  0  4           0  0  0
    4.7234   -1.1548   -4.5031 C   0  0  0  0  0  4           0  0  0
    4.2463   -2.4311   -2.5207 C   0  0  0  0  0  4           0  0  0
    4.2740    0.0000   -2.4348 C   0  0  0  0  0  4           0  0  0
    3.4948   -0.0000   -1.1183 C   0  0  0  0  0  4           0  0  0
  1 11  1  0     0  0
  1 30  1  0     0  0
  2 12  1  0     0  0
  2 33  1  0     0  0
  3 29  2  0     0  0
  4 31  1  0     0  0
  4 32  1  0     0  0
  5 16  1  0     0  0
  5 17  1  0     0  0
  6 13  1  0     0  0
  6 14  2  0     0  0
  7 13  2  0     0  0
  7 15  1  0     0  0
  8 14  1  0     0  0
  8 18  1  0     0  0
  9 19  1  0     0  0
  9 29  1  0     0  0
 10 34  1  0     0  0
 10 35  1  0     0  0
 10 36  1  0     0  0
 11 12  1  0     0  0
 11 21  2  0     0  0
 12 22  2  0     0  0
 14 20  1  0     0  0
 15 20  2  0     0  0
 15 21  1  0     0  0
 16 23  2  0     0  0
 16 29  1  0     0  0
 17 18  2  0     0  0
 18 23  1  0     0  0
 19 24  2  0     0  0
 19 25  1  0     0  0
 20 22  1  0     0  0
 24 26  1  0     0  0
 25 27  2  0     0  0
 26 28  2  0     0  0
 27 28  1  0     0  0
 30 37  1  0     0  0
 31 34  1  0     0  0
 32 35  1  0     0  0
 36 37  1  0     0  0
M  END
> <standard_type>
pIC50

> <# Confs.>
25

> <canonical_smiles>
COC1=CC2=C(C=C1OCCCN3CCOCC3)N=CN=C2NC4=CNC(C(NC5=CC=CC=C5)=O)=C4

> <standard_relation>
=

> <Publication_ID>
nan

> <predicted_activity_value>
6.6777807052660805

> <actual_activity_value>
6.939302159646388

> <Compound>
35

> <standard_units>
nM

> hash
10170315907782814006

$$$$
35_
XXILIB    08252103423D 0   0.00000     0.00000

 37 41  0     1  0            999 V2000
    1.3663   -0.0000    0.0000 O   0  0  0  0  0  2           0  0  0
    0.2192   -0.0045    2.3367 O   0  0  0  0  0  2           0  0  0
  -10.1608   -2.8197    1.4258 O   0  0  0  0  0  2           0  0  0
    8.1238   -2.1856   -0.6377 O   0  0  0  0  0  2           0  0  0
   -8.0194   -1.2542    2.6197 N   0  0  0  0  0  3           0  0  0
   -4.9334   -0.0309   -1.0164 N   0  0  0  0  0  3           0  0  0
   -2.8747   -0.0343   -2.2442 N   0  0  0  0  0  3           0  0  0
   -4.9601    0.0186    1.3670 N   0  0  0  0  0  3           0  0  0
   -9.0057   -2.8288   -0.5729 N   0  0  0  0  0  3           0  0  0
    5.4978   -1.1494   -0.2247 N   0  0  1  0  0  3           0  0  0
    0.0000    0.0000    0.0000 C   0  0  0  0  0  4           0  0  0
   -0.6163   -0.0000    1.2552 C   0  0  0  0  0  4           0  0  0
   -4.2117   -0.0486   -2.1449 C   0  0  0  0  0  4           0  0  0
   -4.2404    0.0192    0.1481 C   0  0  0  0  0  4           0  0  0
   -2.1858   -0.0110   -1.0957 C   0  0  0  0  0  4           0  0  0
   -8.0921   -1.7134    1.3214 C   0  0  0  0  0  4           0  0  0
   -6.8583   -0.5527    2.8161 C   0  0  0  0  0  4           0  0  0
   -6.1637   -0.5559    1.6281 C   0  0  0  0  0  4           0  0  0
   -9.9111   -3.5781   -1.3471 C   0  0  0  0  0  4           0  0  0
   -2.8208    0.0077    0.1610 C   0  0  0  0  0  4           0  0  0
   -0.7936   -0.0112   -1.1541 C   0  0  0  0  0  4           0  0  0
   -2.0142    0.0052    1.3285 C   0  0  0  0  0  4           0  0  0
   -6.9366   -1.2828    0.6884 C   0  0  0  0  0  4           0  0  0
  -11.1125   -4.0718   -0.8255 C   0  0  0  0  0  4           0  0  0
   -9.5871   -3.8277   -2.6859 C   0  0  0  0  0  4           0  0  0
  -11.9791   -4.8061   -1.6387 C   0  0  0  0  0  4           0  0  0
  -10.4569   -4.5612   -3.4947 C   0  0  0  0  0  4           0  0  0
  -11.6516   -5.0511   -2.9710 C   0  0  0  0  0  4           0  0  0
   -9.1767   -2.4914    0.7632 C   0  0  0  0  0  4           0  0  0
    1.9810    0.0000   -1.2890 C   0  0  0  0  0  4           0  0  0
    7.5116   -2.2486    0.6502 C   0  0  0  0  0  4           0  0  0
    7.6767   -1.0349   -1.3550 C   0  0  0  0  0  4           0  0  0
   -0.4285   -0.0044    3.6064 C   0  0  0  0  0  4           0  0  0
    5.9941   -2.3222    0.5126 C   0  0  0  0  0  4           0  0  0
    6.1613   -1.0752   -1.5375 C   0  0  0  0  0  4           0  0  0
    4.0395   -1.2085   -0.3548 C   0  0  0  0  0  4           0  0  0
    3.4948   -0.0000   -1.1183 C   0  0  0  0  0  4           0  0  0
  1 11  1  0     0  0
  1 30  1  0     0  0
  2 12  1  0     0  0
  2 33  1  0     0  0
  3 29  2  0     0  0
  4 31  1  0     0  0
  4 32  1  0     0  0
  5 16  1  0     0  0
  5 17  1  0     0  0
  6 13  1  0     0  0
  6 14  2  0     0  0
  7 13  2  0     0  0
  7 15  1  0     0  0
  8 14  1  0     0  0
  8 18  1  0     0  0
  9 19  1  0     0  0
  9 29  1  0     0  0
 10 34  1  0     0  0
 10 35  1  0     0  0
 10 36  1  0     0  0
 11 12  1  0     0  0
 11 21  2  0     0  0
 12 22  2  0     0  0
 14 20  1  0     0  0
 15 20  2  0     0  0
 15 21  1  0     0  0
 16 23  2  0     0  0
 16 29  1  0     0  0
 17 18  2  0     0  0
 18 23  1  0     0  0
 19 24  2  0     0  0
 19 25  1  0     0  0
 20 22  1  0     0  0
 24 26  1  0     0  0
 25 27  2  0     0  0
 26 28  2  0     0  0
 27 28  1  0     0  0
 30 37  1  0     0  0
 31 34  1  0     0  0
 32 35  1  0     0  0
 36 37  1  0     0  0
M  END
> <standard_type>
pIC50

> <# Confs.>
25

> <canonical_smiles>
COC1=CC2=C(C=C1OCCCN3CCOCC3)N=CN=C2NC4=CNC(C(NC5=CC=CC=C5)=O)=C4

> <standard_relation>
=

> <Publication_ID>
nan

> <predicted_activity_value>
6.6777807052660805

> <actual_activity_value>
6.939302159646388

> <Compound>
35

> <standard_units>
nM

> hash
10170315907782814006

$$$$
35_
XXILIB    08252103423D 0   0.00000     0.00000

 37 41  0     1  0            999 V2000
    1.3663    0.0000   -0.0000 O   0  0  0  0  0  2           0  0  0
    0.2192   -0.0045    2.3367 O   0  0  0  0  0  2           0  0  0
  -10.3624    2.4513    1.3095 O   0  0  0  0  0  2           0  0  0
    2.9449   -5.8391   -2.9156 O   0  0  0  0  0  2           0  0  0
   -8.1082    1.1115    2.5685 N   0  0  0  0  0  3           0  0  0
   -4.9334   -0.0309   -1.0164 N   0  0  0  0  0  3           0  0  0
   -2.8747   -0.0343   -2.2442 N   0  0  0  0  0  3           0  0  0
   -4.9601    0.0186    1.3670 N   0  0  0  0  0  3           0  0  0
   -9.2057    2.4659   -0.6882 N   0  0  0  0  0  3           0  0  0
    3.3141   -3.0714   -2.3294 N   0  0  1  0  0  3           0  0  0
    0.0000    0.0000    0.0000 C   0  0  0  0  0  4           0  0  0
   -0.6163   -0.0000    1.2552 C   0  0  0  0  0  4           0  0  0
   -4.2117   -0.0486   -2.1449 C   0  0  0  0  0  4           0  0  0
   -4.2404    0.0192    0.1481 C   0  0  0  0  0  4           0  0  0
   -2.1858   -0.0110   -1.0957 C   0  0  0  0  0  4           0  0  0
   -8.2127    1.5080    1.2518 C   0  0  0  0  0  4           0  0  0
   -6.8973    0.5099    2.7937 C   0  0  0  0  0  4           0  0  0
   -6.2029    0.5138    1.6054 C   0  0  0  0  0  4           0  0  0
  -10.1650    3.1074   -1.4936 C   0  0  0  0  0  4           0  0  0
   -2.8208    0.0077    0.1610 C   0  0  0  0  0  4           0  0  0
   -0.7936   -0.0112   -1.1541 C   0  0  0  0  0  4           0  0  0
   -2.0142    0.0052    1.3285 C   0  0  0  0  0  4           0  0  0
   -7.0262    1.1405    0.6368 C   0  0  0  0  0  4           0  0  0
  -11.4032    3.5266   -0.9932 C   0  0  0  0  0  4           0  0  0
   -9.8547    3.3308   -2.8402 C   0  0  0  0  0  4           0  0  0
  -12.3185    4.1638   -1.8344 C   0  0  0  0  0  4           0  0  0
  -10.7724    3.9689   -3.6766 C   0  0  0  0  0  4           0  0  0
  -12.0040    4.3840   -3.1742 C   0  0  0  0  0  4           0  0  0
   -9.3535    2.1736    0.6613 C   0  0  0  0  0  4           0  0  0
    1.9810   -0.6445   -1.1163 C   0  0  0  0  0  4           0  0  0
    3.2590   -4.9116   -3.9542 C   0  0  0  0  0  4           0  0  0
    2.1835   -5.2076   -1.8861 C   0  0  0  0  0  4           0  0  0
   -0.4285   -0.0044    3.6064 C   0  0  0  0  0  4           0  0  0
    4.0701   -3.7462   -3.3965 C   0  0  0  0  0  4           0  0  0
    2.9660   -4.0448   -1.2804 C   0  0  0  0  0  4           0  0  0
    4.0833   -1.9455   -1.7932 C   0  0  0  0  0  4           0  0  0
    3.3207   -1.2242   -0.6804 C   0  0  0  0  0  4           0  0  0
  1 11  1  0     0  0
  1 30  1  0     0  0
  2 12  1  0     0  0
  2 33  1  0     0  0
  3 29  2  0     0  0
  4 31  1  0     0  0
  4 32  1  0     0  0
  5 16  1  0     0  0
  5 17  1  0     0  0
  6 13  1  0     0  0
  6 14  2  0     0  0
  7 13  2  0     0  0
  7 15  1  0     0  0
  8 14  1  0     0  0
  8 18  1  0     0  0
  9 19  1  0     0  0
  9 29  1  0     0  0
 10 34  1  0     0  0
 10 35  1  0     0  0
 10 36  1  0     0  0
 11 12  1  0     0  0
 11 21  2  0     0  0
 12 22  2  0     0  0
 14 20  1  0     0  0
 15 20  2  0     0  0
 15 21  1  0     0  0
 16 23  2  0     0  0
 16 29  1  0     0  0
 17 18  2  0     0  0
 18 23  1  0     0  0
 19 24  2  0     0  0
 19 25  1  0     0  0
 20 22  1  0     0  0
 24 26  1  0     0  0
 25 27  2  0     0  0
 26 28  2  0     0  0
 27 28  1  0     0  0
 30 37  1  0     0  0
 31 34  1  0     0  0
 32 35  1  0     0  0
 36 37  1  0     0  0
M  END
> <standard_type>
pIC50

> <# Confs.>
25

> <canonical_smiles>
COC1=CC2=C(C=C1OCCCN3CCOCC3)N=CN=C2NC4=CNC(C(NC5=CC=CC=C5)=O)=C4

> <standard_relation>
=

> <Publication_ID>
nan

> <predicted_activity_value>
6.6777807052660805

> <actual_activity_value>
6.939302159646388

> <Compound>
35

> <standard_units>
nM

> hash
10170315907782814006

$$$$
35_
XXILIB    08252103423D 0   0.00000     0.00000

 37 41  0     1  0            999 V2000
    1.3663   -0.0000   -0.0000 O   0  0  0  0  0  2           0  0  0
    0.2192   -0.0045    2.3367 O   0  0  0  0  0  2           0  0  0
  -10.1608   -2.8197    1.4258 O   0  0  0  0  0  2           0  0  0
    8.3289    1.1283   -2.4576 O   0  0  0  0  0  2           0  0  0
   -8.0194   -1.2542    2.6197 N   0  0  0  0  0  3           0  0  0
   -4.9334   -0.0309   -1.0164 N   0  0  0  0  0  3           0  0  0
   -2.8747   -0.0343   -2.2442 N   0  0  0  0  0  3           0  0  0
   -4.9601    0.0186    1.3670 N   0  0  0  0  0  3           0  0  0
   -9.0057   -2.8288   -0.5729 N   0  0  0  0  0  3           0  0  0
    5.7208   -0.0000   -2.2030 N   0  0  1  0  0  3           0  0  0
    0.0000    0.0000    0.0000 C   0  0  0  0  0  4           0  0  0
   -0.6163   -0.0000    1.2552 C   0  0  0  0  0  4           0  0  0
   -4.2117   -0.0486   -2.1449 C   0  0  0  0  0  4           0  0  0
   -4.2404    0.0192    0.1481 C   0  0  0  0  0  4           0  0  0
   -2.1858   -0.0110   -1.0957 C   0  0  0  0  0  4           0  0  0
   -8.0921   -1.7134    1.3214 C   0  0  0  0  0  4           0  0  0
   -6.8583   -0.5527    2.8161 C   0  0  0  0  0  4           0  0  0
   -6.1637   -0.5559    1.6281 C   0  0  0  0  0  4           0  0  0
   -9.9111   -3.5781   -1.3471 C   0  0  0  0  0  4           0  0  0
   -2.8208    0.0077    0.1610 C   0  0  0  0  0  4           0  0  0
   -0.7936   -0.0112   -1.1541 C   0  0  0  0  0  4           0  0  0
   -2.0142    0.0052    1.3285 C   0  0  0  0  0  4           0  0  0
   -6.9366   -1.2828    0.6884 C   0  0  0  0  0  4           0  0  0
  -11.1125   -4.0718   -0.8255 C   0  0  0  0  0  4           0  0  0
   -9.5871   -3.8277   -2.6859 C   0  0  0  0  0  4           0  0  0
  -11.9791   -4.8061   -1.6387 C   0  0  0  0  0  4           0  0  0
  -10.4569   -4.5612   -3.4947 C   0  0  0  0  0  4           0  0  0
  -11.6516   -5.0511   -2.9710 C   0  0  0  0  0  4           0  0  0
   -9.1767   -2.4914    0.7632 C   0  0  0  0  0  4           0  0  0
    1.9810    0.0000   -1.2890 C   0  0  0  0  0  4           0  0  0
    7.9494   -0.0080   -3.2337 C   0  0  0  0  0  4           0  0  0
    7.6588    1.1268   -1.1968 C   0  0  0  0  0  4           0  0  0
   -0.4285   -0.0044    3.6064 C   0  0  0  0  0  4           0  0  0
    6.4447   -0.0000   -3.4843 C   0  0  0  0  0  4           0  0  0
    6.1454    1.1570   -1.3967 C   0  0  0  0  0  4           0  0  0
    4.2740    0.0000   -2.4348 C   0  0  0  0  0  4           0  0  0
    3.4948   -0.0000   -1.1183 C   0  0  0  0  0  4           0  0  0
  1 11  1  0     0  0
  1 30  1  0     0  0
  2 12  1  0     0  0
  2 33  1  0     0  0
  3 29  2  0     0  0
  4 31  1  0     0  0
  4 32  1  0     0  0
  5 16  1  0     0  0
  5 17  1  0     0  0
  6 13  1  0     0  0
  6 14  2  0     0  0
  7 13  2  0     0  0
  7 15  1  0     0  0
  8 14  1  0     0  0
  8 18  1  0     0  0
  9 19  1  0     0  0
  9 29  1  0     0  0
 10 34  1  0     0  0
 10 35  1  0     0  0
 10 36  1  0     0  0
 11 12  1  0     0  0
 11 21  2  0     0  0
 12 22  2  0     0  0
 14 20  1  0     0  0
 15 20  2  0     0  0
 15 21  1  0     0  0
 16 23  2  0     0  0
 16 29  1  0     0  0
 17 18  2  0     0  0
 18 23  1  0     0  0
 19 24  2  0     0  0
 19 25  1  0     0  0
 20 22  1  0     0  0
 24 26  1  0     0  0
 25 27  2  0     0  0
 26 28  2  0     0  0
 27 28  1  0     0  0
 30 37  1  0     0  0
 31 34  1  0     0  0
 32 35  1  0     0  0
 36 37  1  0     0  0
M  END
> <standard_type>
pIC50

> <# Confs.>
25

> <canonical_smiles>
COC1=CC2=C(C=C1OCCCN3CCOCC3)N=CN=C2NC4=CNC(C(NC5=CC=CC=C5)=O)=C4

> <standard_relation>
=

> <Publication_ID>
nan

> <predicted_activity_value>
6.6777807052660805

> <actual_activity_value>
6.939302159646388

> <Compound>
35

> <standard_units>
nM

> hash
10170315907782814006

$$$$
35_
XXILIB    08252103423D 0   0.00000     0.00000

 37 41  0     1  0            999 V2000
    1.3663   -0.0000    0.0000 O   0  0  0  0  0  2           0  0  0
    0.2192   -0.0045    2.3367 O   0  0  0  0  0  2           0  0  0
  -10.3624    2.4513    1.3095 O   0  0  0  0  0  2           0  0  0
    8.1238   -2.1856   -0.6377 O   0  0  0  0  0  2           0  0  0
   -8.1082    1.1115    2.5685 N   0  0  0  0  0  3           0  0  0
   -4.9334   -0.0309   -1.0164 N   0  0  0  0  0  3           0  0  0
   -2.8747   -0.0343   -2.2442 N   0  0  0  0  0  3           0  0  0
   -4.9601    0.0186    1.3670 N   0  0  0  0  0  3           0  0  0
   -9.2057    2.4659   -0.6882 N   0  0  0  0  0  3           0  0  0
    5.4978   -1.1494   -0.2247 N   0  0  1  0  0  3           0  0  0
    0.0000    0.0000    0.0000 C   0  0  0  0  0  4           0  0  0
   -0.6163   -0.0000    1.2552 C   0  0  0  0  0  4           0  0  0
   -4.2117   -0.0486   -2.1449 C   0  0  0  0  0  4           0  0  0
   -4.2404    0.0192    0.1481 C   0  0  0  0  0  4           0  0  0
   -2.1858   -0.0110   -1.0957 C   0  0  0  0  0  4           0  0  0
   -8.2127    1.5080    1.2518 C   0  0  0  0  0  4           0  0  0
   -6.8973    0.5099    2.7937 C   0  0  0  0  0  4           0  0  0
   -6.2029    0.5138    1.6054 C   0  0  0  0  0  4           0  0  0
  -10.1650    3.1074   -1.4936 C   0  0  0  0  0  4           0  0  0
   -2.8208    0.0077    0.1610 C   0  0  0  0  0  4           0  0  0
   -0.7936   -0.0112   -1.1541 C   0  0  0  0  0  4           0  0  0
   -2.0142    0.0052    1.3285 C   0  0  0  0  0  4           0  0  0
   -7.0262    1.1405    0.6368 C   0  0  0  0  0  4           0  0  0
  -11.4032    3.5266   -0.9932 C   0  0  0  0  0  4           0  0  0
   -9.8547    3.3308   -2.8402 C   0  0  0  0  0  4           0  0  0
  -12.3185    4.1638   -1.8344 C   0  0  0  0  0  4           0  0  0
  -10.7724    3.9689   -3.6766 C   0  0  0  0  0  4           0  0  0
  -12.0040    4.3840   -3.1742 C   0  0  0  0  0  4           0  0  0
   -9.3535    2.1736    0.6613 C   0  0  0  0  0  4           0  0  0
    1.9810    0.0000   -1.2890 C   0  0  0  0  0  4           0  0  0
    7.5116   -2.2486    0.6502 C   0  0  0  0  0  4           0  0  0
    7.6767   -1.0349   -1.3550 C   0  0  0  0  0  4           0  0  0
   -0.4285   -0.0044    3.6064 C   0  0  0  0  0  4           0  0  0
    5.9941   -2.3222    0.5126 C   0  0  0  0  0  4           0  0  0
    6.1613   -1.0752   -1.5375 C   0  0  0  0  0  4           0  0  0
    4.0395   -1.2085   -0.3548 C   0  0  0  0  0  4           0  0  0
    3.4948   -0.0000   -1.1183 C   0  0  0  0  0  4           0  0  0
  1 11  1  0     0  0
  1 30  1  0     0  0
  2 12  1  0     0  0
  2 33  1  0     0  0
  3 29  2  0     0  0
  4 31  1  0     0  0
  4 32  1  0     0  0
  5 16  1  0     0  0
  5 17  1  0     0  0
  6 13  1  0     0  0
  6 14  2  0     0  0
  7 13  2  0     0  0
  7 15  1  0     0  0
  8 14  1  0     0  0
  8 18  1  0     0  0
  9 19  1  0     0  0
  9 29  1  0     0  0
 10 34  1  0     0  0
 10 35  1  0     0  0
 10 36  1  0     0  0
 11 12  1  0     0  0
 11 21  2  0     0  0
 12 22  2  0     0  0
 14 20  1  0     0  0
 15 20  2  0     0  0
 15 21  1  0     0  0
 16 23  2  0     0  0
 16 29  1  0     0  0
 17 18  2  0     0  0
 18 23  1  0     0  0
 19 24  2  0     0  0
 19 25  1  0     0  0
 20 22  1  0     0  0
 24 26  1  0     0  0
 25 27  2  0     0  0
 26 28  2  0     0  0
 27 28  1  0     0  0
 30 37  1  0     0  0
 31 34  1  0     0  0
 32 35  1  0     0  0
 36 37  1  0     0  0
M  END
> <standard_type>
pIC50

> <# Confs.>
25

> <canonical_smiles>
COC1=CC2=C(C=C1OCCCN3CCOCC3)N=CN=C2NC4=CNC(C(NC5=CC=CC=C5)=O)=C4

> <standard_relation>
=

> <Publication_ID>
nan

> <predicted_activity_value>
6.6777807052660805

> <actual_activity_value>
6.939302159646388

> <Compound>
35

> <standard_units>
nM

> hash
10170315907782814006

$$$$
35_
XXILIB    08252103423D 0   0.00000     0.00000

 37 41  0     1  0            999 V2000
    1.3663   -0.0000   -0.0000 O   0  0  0  0  0  2           0  0  0
    0.2192   -0.0045    2.3367 O   0  0  0  0  0  2           0  0  0
   -8.4257   -4.6638    2.4494 O   0  0  0  0  0  2           0  0  0
    4.6803   -3.5761   -4.6170 O   0  0  0  0  0  2           0  0  0
   -7.2413   -2.0826    3.0787 N   0  0  0  0  0  3           0  0  0
   -4.9334   -0.0309   -1.0164 N   0  0  0  0  0  3           0  0  0
   -2.8747   -0.0343   -2.2442 N   0  0  0  0  0  3           0  0  0
   -4.9601    0.0186    1.3670 N   0  0  0  0  0  3           0  0  0
   -7.2637   -4.6824    0.4547 N   0  0  0  0  0  3           0  0  0
    3.9612   -1.1805   -3.2444 N   0  0  1  0  0  3           0  0  0
    0.0000    0.0000    0.0000 C   0  0  0  0  0  4           0  0  0
   -0.6163   -0.0000    1.2552 C   0  0  0  0  0  4           0  0  0
   -4.2117   -0.0486   -2.1449 C   0  0  0  0  0  4           0  0  0
   -4.2404    0.0192    0.1481 C   0  0  0  0  0  4           0  0  0
   -2.1858   -0.0110   -1.0957 C   0  0  0  0  0  4           0  0  0
   -7.0326   -2.8416    1.9463 C   0  0  0  0  0  4           0  0  0
   -6.5091   -0.9252    3.0221 C   0  0  0  0  0  4           0  0  0
   -5.8122   -0.9308    1.8354 C   0  0  0  0  0  4           0  0  0
   -7.7110   -5.9179   -0.0493 C   0  0  0  0  0  4           0  0  0
   -2.8208    0.0077    0.1610 C   0  0  0  0  0  4           0  0  0
   -0.7936   -0.0112   -1.1541 C   0  0  0  0  0  4           0  0  0
   -2.0142    0.0052    1.3285 C   0  0  0  0  0  4           0  0  0
   -6.1400   -2.1320    1.1583 C   0  0  0  0  0  4           0  0  0
   -8.6112   -6.7301    0.6500 C   0  0  0  0  0  4           0  0  0
   -7.2329   -6.3348   -1.2972 C   0  0  0  0  0  4           0  0  0
   -9.0277   -7.9459    0.1023 C   0  0  0  0  0  4           0  0  0
   -7.6529   -7.5501   -1.8407 C   0  0  0  0  0  4           0  0  0
   -8.5488   -8.3557   -1.1408 C   0  0  0  0  0  4           0  0  0
   -7.6417   -4.1242    1.6687 C   0  0  0  0  0  4           0  0  0
    1.9810    0.0000   -1.2890 C   0  0  0  0  0  4           0  0  0
    4.3858   -2.3828   -5.3428 C   0  0  0  0  0  4           0  0  0
    3.9246   -3.6321   -3.4069 C   0  0  0  0  0  4           0  0  0
   -0.4285   -0.0044    3.6064 C   0  0  0  0  0  4           0  0  0
    4.7234   -1.1548   -4.5031 C   0  0  0  0  0  4           0  0  0
    4.2463   -2.4311   -2.5207 C   0  0  0  0  0  4           0  0  0
    4.2740    0.0000   -2.4348 C   0  0  0  0  0  4           0  0  0
    3.4948   -0.0000   -1.1183 C   0  0  0  0  0  4           0  0  0
  1 11  1  0     0  0
  1 30  1  0     0  0
  2 12  1  0     0  0
  2 33  1  0     0  0
  3 29  2  0     0  0
  4 31  1  0     0  0
  4 32  1  0     0  0
  5 16  1  0     0  0
  5 17  1  0     0  0
  6 13  1  0     0  0
  6 14  2  0     0  0
  7 13  2  0     0  0
  7 15  1  0     0  0
  8 14  1  0     0  0
  8 18  1  0     0  0
  9 19  1  0     0  0
  9 29  1  0     0  0
 10 34  1  0     0  0
 10 35  1  0     0  0
 10 36  1  0     0  0
 11 12  1  0     0  0
 11 21  2  0     0  0
 12 22  2  0     0  0
 14 20  1  0     0  0
 15 20  2  0     0  0
 15 21  1  0     0  0
 16 23  2  0     0  0
 16 29  1  0     0  0
 17 18  2  0     0  0
 18 23  1  0     0  0
 19 24  2  0     0  0
 19 25  1  0     0  0
 20 22  1  0     0  0
 24 26  1  0     0  0
 25 27  2  0     0  0
 26 28  2  0     0  0
 27 28  1  0     0  0
 30 37  1  0     0  0
 31 34  1  0     0  0
 32 35  1  0     0  0
 36 37  1  0     0  0
M  END
> <standard_type>
pIC50

> <# Confs.>
25

> <canonical_smiles>
COC1=CC2=C(C=C1OCCCN3CCOCC3)N=CN=C2NC4=CNC(C(NC5=CC=CC=C5)=O)=C4

> <standard_relation>
=

> <Publication_ID>
nan

> <predicted_activity_value>
6.6777807052660805

> <actual_activity_value>
6.939302159646388

> <Compound>
35

> <standard_units>
nM

> hash
10170315907782814006

$$$$
42_
XXILIB    08252103423D 0   0.00000     0.00000

 29 32  0     1  0            999 V2000
   -3.1431    6.7047   -0.6279 Cl  0  0  0  0  0  1           0  0  0
   -2.5004    4.3740    1.0719 F   0  0  0  0  0  1           0  0  0
   -4.2077    1.7004    2.1162 O   0  0  0  0  0  2           0  0  0
    4.6880    2.6079   -6.8907 N   0  0  0  0  0  3           0  0  0
    3.9337    1.9419   -6.0027 N   0  0  0  0  0  3           0  0  0
    2.4111    1.2111   -1.9018 N   0  0  0  0  0  3           0  0  0
    3.3285    2.5021   -3.7214 N   0  0  0  0  0  3           0  0  0
   -2.6100    1.0582    0.5434 N   0  0  1  0  0  3           0  0  0
   -0.0000    0.0000    0.0000 N   0  0  1  0  0  3           0  0  0
   -3.8786    5.1501   -0.6945 C   0  0  0  0  0  4           0  0  0
   -3.4700    4.1418    0.1739 C   0  0  0  0  0  4           0  0  0
    3.9443    2.7256   -4.9121 C   0  0  0  0  0  4           0  0  0
    3.0388    1.2601   -3.1072 C   0  0  0  0  0  4           0  0  0
    2.1383    0.0000   -1.3526 C   0  0  0  0  0  4           0  0  0
    5.1810    3.7867   -6.4233 C   0  0  0  0  0  4           0  0  0
   -4.0717    2.8865    0.1102 C   0  0  0  0  0  4           0  0  0
   -4.8910    4.9019   -1.6234 C   0  0  0  0  0  4           0  0  0
    4.7173    3.8961   -5.1363 C   0  0  0  0  0  4           0  0  0
    3.3967    0.0908   -3.7813 C   0  0  0  0  0  4           0  0  0
    2.4774   -1.1970   -1.9709 C   0  0  0  0  0  4           0  0  0
   -5.0885    2.6280   -0.8088 C   0  0  0  0  0  4           0  0  0
   -5.4943    3.6416   -1.6778 C   0  0  0  0  0  4           0  0  0
    3.1129   -1.1428   -3.2034 C   0  0  0  0  0  4           0  0  0
   -3.6509    1.8281    1.0323 C   0  0  0  0  0  4           0  0  0
    1.4663   -0.0000    0.0000 C   0  0  0  0  0  4           0  0  0
   -2.0721   -0.0336    1.3486 C   0  0  0  0  0  4           0  0  0
   -2.0353    1.1675   -0.8002 C   0  0  0  0  0  4           0  0  0
   -0.5443    0.0000    1.3706 C   0  0  0  0  0  4           0  0  0
   -0.5066    1.1685   -0.7425 C   0  0  0  0  0  4           0  0  0
  1 10  1  0     0  0
  2 11  1  0     0  0
  3 24  2  0     0  0
  4  5  1  0     0  0
  4 15  1  0     0  0
  5 12  2  0     0  0
  6 13  1  0     0  0
  6 14  2  0     0  0
  7 12  1  0     0  0
  7 13  1  0     0  0
  8 24  1  0     0  0
  8 26  1  0     0  0
  8 27  1  0     0  0
  9 25  1  0     0  0
  9 28  1  0     0  0
  9 29  1  0     0  0
 10 11  2  0     0  0
 10 17  1  0     0  0
 11 16  1  0     0  0
 12 18  1  0     0  0
 13 19  2  0     0  0
 14 20  1  0     0  0
 14 25  1  0     0  0
 15 18  2  0     0  0
 16 21  2  0     0  0
 16 24  1  0     0  0
 17 22  2  0     0  0
 19 23  1  0     0  0
 20 23  2  0     0  0
 21 22  1  0     0  0
 26 28  1  0     0  0
 27 29  1  0     0  0
M  END
> <standard_type>
pIC50

> <# Confs.>
25

> <canonical_smiles>
O=C(C1=CC=CC(Cl)=C1F)N(CC2)CCN2CC3=NC(NC4=NNC=C4)=CC=C3

> <standard_relation>
=

> <Publication_ID>
nan

> <predicted_activity_value>
6.275724130399211

> <actual_activity_value>
5.886056647693163

> <Compound>
42

> <standard_units>
nM

> hash
13606552447261492499

$$$$
42_
XXILIB    08252103423D 0   0.00000     0.00000

 29 32  0     1  0            999 V2000
   -3.1431    6.7047   -0.6279 Cl  0  0  0  0  0  1           0  0  0
   -2.5004    4.3740    1.0719 F   0  0  0  0  0  1           0  0  0
   -4.2077    1.7004    2.1162 O   0  0  0  0  0  2           0  0  0
    6.3869    1.9716   -6.0468 N   0  0  0  0  0  3           0  0  0
    5.2844    1.6991   -5.3317 N   0  0  0  0  0  3           0  0  0
    3.1780    0.8564   -1.5208 N   0  0  0  0  0  3           0  0  0
    4.9098    1.7607   -2.9358 N   0  0  0  0  0  3           0  0  0
   -2.6100    1.0582    0.5434 N   0  0  1  0  0  3           0  0  0
   -0.0000    0.0000    0.0000 N   0  0  1  0  0  3           0  0  0
   -3.8786    5.1501   -0.6945 C   0  0  0  0  0  4           0  0  0
   -3.4700    4.1418    0.1739 C   0  0  0  0  0  4           0  0  0
    5.6615    1.9034   -4.0591 C   0  0  0  0  0  4           0  0  0
    3.8300    0.8727   -2.7141 C   0  0  0  0  0  4           0  0  0
    2.1383    0.0000   -1.3526 C   0  0  0  0  0  4           0  0  0
    7.4560    2.3459   -5.2931 C   0  0  0  0  0  4           0  0  0
   -4.0717    2.8865    0.1102 C   0  0  0  0  0  4           0  0  0
   -4.8910    4.9019   -1.6234 C   0  0  0  0  0  4           0  0  0
    7.0203    2.3120   -3.9923 C   0  0  0  0  0  4           0  0  0
    3.4420    0.0313   -3.7588 C   0  0  0  0  0  4           0  0  0
    1.7119   -0.8667   -2.3512 C   0  0  0  0  0  4           0  0  0
   -5.0885    2.6280   -0.8088 C   0  0  0  0  0  4           0  0  0
   -5.4943    3.6416   -1.6778 C   0  0  0  0  0  4           0  0  0
    2.3762   -0.8430   -3.5694 C   0  0  0  0  0  4           0  0  0
   -3.6509    1.8281    1.0323 C   0  0  0  0  0  4           0  0  0
    1.4663    0.0000   -0.0000 C   0  0  0  0  0  4           0  0  0
   -2.0721   -0.0336    1.3486 C   0  0  0  0  0  4           0  0  0
   -2.0353    1.1675   -0.8002 C   0  0  0  0  0  4           0  0  0
   -0.5443    0.0000    1.3706 C   0  0  0  0  0  4           0  0  0
   -0.5066    1.1685   -0.7425 C   0  0  0  0  0  4           0  0  0
  1 10  1  0     0  0
  2 11  1  0     0  0
  3 24  2  0     0  0
  4  5  1  0     0  0
  4 15  1  0     0  0
  5 12  2  0     0  0
  6 13  1  0     0  0
  6 14  2  0     0  0
  7 12  1  0     0  0
  7 13  1  0     0  0
  8 24  1  0     0  0
  8 26  1  0     0  0
  8 27  1  0     0  0
  9 25  1  0     0  0
  9 28  1  0     0  0
  9 29  1  0     0  0
 10 11  2  0     0  0
 10 17  1  0     0  0
 11 16  1  0     0  0
 12 18  1  0     0  0
 13 19  2  0     0  0
 14 20  1  0     0  0
 14 25  1  0     0  0
 15 18  2  0     0  0
 16 21  2  0     0  0
 16 24  1  0     0  0
 17 22  2  0     0  0
 19 23  1  0     0  0
 20 23  2  0     0  0
 21 22  1  0     0  0
 26 28  1  0     0  0
 27 29  1  0     0  0
M  END
> <standard_type>
pIC50

> <# Confs.>
25

> <canonical_smiles>
O=C(C1=CC=CC(Cl)=C1F)N(CC2)CCN2CC3=NC(NC4=NNC=C4)=CC=C3

> <standard_relation>
=

> <Publication_ID>
nan

> <predicted_activity_value>
6.275724130399211

> <actual_activity_value>
5.886056647693163

> <Compound>
42

> <standard_units>
nM

> hash
13606552447261492499

$$$$
42_
XXILIB    08252103423D 0   0.00000     0.00000

 29 32  0     1  0            999 V2000
   -3.1431    6.7047   -0.6279 Cl  0  0  0  0  0  1           0  0  0
   -2.5004    4.3740    1.0719 F   0  0  0  0  0  1           0  0  0
   -4.2077    1.7004    2.1162 O   0  0  0  0  0  2           0  0  0
    6.6153   -4.2801    4.4532 N   0  0  0  0  0  3           0  0  0
    5.8681   -3.8427    3.4278 N   0  0  0  0  0  3           0  0  0
    3.1780   -0.8889    1.5020 N   0  0  0  0  0  3           0  0  0
    4.8945   -1.6602    3.0113 N   0  0  0  0  0  3           0  0  0
   -2.6100    1.0582    0.5434 N   0  0  1  0  0  3           0  0  0
   -0.0000    0.0000    0.0000 N   0  0  1  0  0  3           0  0  0
   -3.8786    5.1501   -0.6945 C   0  0  0  0  0  4           0  0  0
   -3.4700    4.1418    0.1739 C   0  0  0  0  0  4           0  0  0
    5.6186   -2.5581    3.7300 C   0  0  0  0  0  4           0  0  0
    3.7972   -1.9100    2.1527 C   0  0  0  0  0  4           0  0  0
    2.1383   -1.1714    0.6763 C   0  0  0  0  0  4           0  0  0
    6.8619   -3.3349    5.4003 C   0  0  0  0  0  4           0  0  0
   -4.0717    2.8865    0.1102 C   0  0  0  0  0  4           0  0  0
   -4.8910    4.9019   -1.6234 C   0  0  0  0  0  4           0  0  0
    6.2270   -2.1998    4.9626 C   0  0  0  0  0  4           0  0  0
    3.3831   -3.2320    1.9781 C   0  0  0  0  0  4           0  0  0
    1.6756   -2.4649    0.4691 C   0  0  0  0  0  4           0  0  0
   -5.0885    2.6280   -0.8088 C   0  0  0  0  0  4           0  0  0
   -5.4943    3.6416   -1.6778 C   0  0  0  0  0  4           0  0  0
    2.3136   -3.5047    1.1307 C   0  0  0  0  0  4           0  0  0
   -3.6509    1.8281    1.0323 C   0  0  0  0  0  4           0  0  0
    1.4663   -0.0000    0.0000 C   0  0  0  0  0  4           0  0  0
   -2.0721   -0.0336    1.3486 C   0  0  0  0  0  4           0  0  0
   -2.0353    1.1675   -0.8002 C   0  0  0  0  0  4           0  0  0
   -0.5443    0.0000    1.3706 C   0  0  0  0  0  4           0  0  0
   -0.5066    1.1685   -0.7425 C   0  0  0  0  0  4           0  0  0
  1 10  1  0     0  0
  2 11  1  0     0  0
  3 24  2  0     0  0
  4  5  1  0     0  0
  4 15  1  0     0  0
  5 12  2  0     0  0
  6 13  1  0     0  0
  6 14  2  0     0  0
  7 12  1  0     0  0
  7 13  1  0     0  0
  8 24  1  0     0  0
  8 26  1  0     0  0
  8 27  1  0     0  0
  9 25  1  0     0  0
  9 28  1  0     0  0
  9 29  1  0     0  0
 10 11  2  0     0  0
 10 17  1  0     0  0
 11 16  1  0     0  0
 12 18  1  0     0  0
 13 19  2  0     0  0
 14 20  1  0     0  0
 14 25  1  0     0  0
 15 18  2  0     0  0
 16 21  2  0     0  0
 16 24  1  0     0  0
 17 22  2  0     0  0
 19 23  1  0     0  0
 20 23  2  0     0  0
 21 22  1  0     0  0
 26 28  1  0     0  0
 27 29  1  0     0  0
M  END
> <standard_type>
pIC50

> <# Confs.>
25

> <canonical_smiles>
O=C(C1=CC=CC(Cl)=C1F)N(CC2)CCN2CC3=NC(NC4=NNC=C4)=CC=C3

> <standard_relation>
=

> <Publication_ID>
nan

> <predicted_activity_value>
6.275724130399211

> <actual_activity_value>
5.886056647693163

> <Compound>
42

> <standard_units>
nM

> hash
13606552447261492499

$$$$
42_
XXILIB    08252103423D 0   0.00000     0.00000

 29 32  0     1  0            999 V2000
   -3.1431    6.7047   -0.6279 Cl  0  0  0  0  0  1           0  0  0
   -2.5004    4.3740    1.0719 F   0  0  0  0  0  1           0  0  0
   -4.2077    1.7004    2.1162 O   0  0  0  0  0  2           0  0  0
    5.0111   -4.5246    5.6236 N   0  0  0  0  0  3           0  0  0
    4.7592   -3.8724    4.4781 N   0  0  0  0  0  3           0  0  0
    2.4111   -1.0415    1.9997 N   0  0  0  0  0  3           0  0  0
    3.3069   -1.9811    4.0329 N   0  0  0  0  0  3           0  0  0
   -2.6100    1.0582    0.5434 N   0  0  1  0  0  3           0  0  0
   -0.0000    0.0000    0.0000 N   0  0  1  0  0  3           0  0  0
   -3.8786    5.1501   -0.6945 C   0  0  0  0  0  4           0  0  0
   -3.4700    4.1418    0.1739 C   0  0  0  0  0  4           0  0  0
    3.8837   -2.9173    4.8315 C   0  0  0  0  0  4           0  0  0
    2.9924   -2.0808    2.6564 C   0  0  0  0  0  4           0  0  0
    2.1383   -1.1714    0.6763 C   0  0  0  0  0  4           0  0  0
    4.3408   -4.0309    6.6997 C   0  0  0  0  0  4           0  0  0
   -4.0717    2.8865    0.1102 C   0  0  0  0  0  4           0  0  0
   -4.8910    4.9019   -1.6234 C   0  0  0  0  0  4           0  0  0
    3.5954   -2.9828    6.2210 C   0  0  0  0  0  4           0  0  0
    3.3134   -3.2651    1.9899 C   0  0  0  0  0  4           0  0  0
    2.4261   -2.3274   -0.0384 C   0  0  0  0  0  4           0  0  0
   -5.0885    2.6280   -0.8088 C   0  0  0  0  0  4           0  0  0
   -5.4943    3.6416   -1.6778 C   0  0  0  0  0  4           0  0  0
    3.0244   -3.3837    0.6340 C   0  0  0  0  0  4           0  0  0
   -3.6509    1.8281    1.0323 C   0  0  0  0  0  4           0  0  0
    1.4663   -0.0000   -0.0000 C   0  0  0  0  0  4           0  0  0
   -2.0721   -0.0336    1.3486 C   0  0  0  0  0  4           0  0  0
   -2.0353    1.1675   -0.8002 C   0  0  0  0  0  4           0  0  0
   -0.5443    0.0000    1.3706 C   0  0  0  0  0  4           0  0  0
   -0.5066    1.1685   -0.7425 C   0  0  0  0  0  4           0  0  0
  1 10  1  0     0  0
  2 11  1  0     0  0
  3 24  2  0     0  0
  4  5  1  0     0  0
  4 15  1  0     0  0
  5 12  2  0     0  0
  6 13  1  0     0  0
  6 14  2  0     0  0
  7 12  1  0     0  0
  7 13  1  0     0  0
  8 24  1  0     0  0
  8 26  1  0     0  0
  8 27  1  0     0  0
  9 25  1  0     0  0
  9 28  1  0     0  0
  9 29  1  0     0  0
 10 11  2  0     0  0
 10 17  1  0     0  0
 11 16  1  0     0  0
 12 18  1  0     0  0
 13 19  2  0     0  0
 14 20  1  0     0  0
 14 25  1  0     0  0
 15 18  2  0     0  0
 16 21  2  0     0  0
 16 24  1  0     0  0
 17 22  2  0     0  0
 19 23  1  0     0  0
 20 23  2  0     0  0
 21 22  1  0     0  0
 26 28  1  0     0  0
 27 29  1  0     0  0
M  END
> <standard_type>
pIC50

> <# Confs.>
25

> <canonical_smiles>
O=C(C1=CC=CC(Cl)=C1F)N(CC2)CCN2CC3=NC(NC4=NNC=C4)=CC=C3

> <standard_relation>
=

> <Publication_ID>
nan

> <predicted_activity_value>
6.275724130399211

> <actual_activity_value>
5.886056647693163

> <Compound>
42

> <standard_units>
nM

> hash
13606552447261492499

$$$$
42_
XXILIB    08252103423D 0   0.00000     0.00000

 29 32  0     1  0            999 V2000
   -6.6973    3.3374   -2.8711 Cl  0  0  0  0  0  1           0  0  0
   -5.6533    1.4251   -0.8743 F   0  0  0  0  0  1           0  0  0
   -4.2077    1.7004    2.1162 O   0  0  0  0  0  2           0  0  0
    6.3869    1.9716   -6.0468 N   0  0  0  0  0  3           0  0  0
    5.2844    1.6991   -5.3317 N   0  0  0  0  0  3           0  0  0
    3.1780    0.8564   -1.5208 N   0  0  0  0  0  3           0  0  0
    4.9098    1.7607   -2.9358 N   0  0  0  0  0  3           0  0  0
   -2.6100    1.0582    0.5434 N   0  0  1  0  0  3           0  0  0
   -0.0000    0.0000    0.0000 N   0  0  1  0  0  3           0  0  0
   -5.4624    3.6357   -1.7101 C   0  0  0  0  0  4           0  0  0
   -5.0717    2.6334   -0.8266 C   0  0  0  0  0  4           0  0  0
    5.6615    1.9034   -4.0591 C   0  0  0  0  0  4           0  0  0
    3.8300    0.8727   -2.7141 C   0  0  0  0  0  4           0  0  0
    2.1383    0.0000   -1.3526 C   0  0  0  0  0  4           0  0  0
    7.4560    2.3459   -5.2931 C   0  0  0  0  0  4           0  0  0
   -4.0717    2.8865    0.1102 C   0  0  0  0  0  4           0  0  0
   -4.8496    4.8892   -1.6569 C   0  0  0  0  0  4           0  0  0
    7.0203    2.3120   -3.9923 C   0  0  0  0  0  4           0  0  0
    3.4420    0.0313   -3.7588 C   0  0  0  0  0  4           0  0  0
    1.7119   -0.8667   -2.3512 C   0  0  0  0  0  4           0  0  0
   -3.4473    4.1323    0.1690 C   0  0  0  0  0  4           0  0  0
   -3.8427    5.1343   -0.7180 C   0  0  0  0  0  4           0  0  0
    2.3762   -0.8430   -3.5694 C   0  0  0  0  0  4           0  0  0
   -3.6509    1.8281    1.0323 C   0  0  0  0  0  4           0  0  0
    1.4663    0.0000   -0.0000 C   0  0  0  0  0  4           0  0  0
   -2.0721   -0.0336    1.3486 C   0  0  0  0  0  4           0  0  0
   -2.0353    1.1675   -0.8002 C   0  0  0  0  0  4           0  0  0
   -0.5443    0.0000    1.3706 C   0  0  0  0  0  4           0  0  0
   -0.5066    1.1685   -0.7425 C   0  0  0  0  0  4           0  0  0
  1 10  1  0     0  0
  2 11  1  0     0  0
  3 24  2  0     0  0
  4  5  1  0     0  0
  4 15  1  0     0  0
  5 12  2  0     0  0
  6 13  1  0     0  0
  6 14  2  0     0  0
  7 12  1  0     0  0
  7 13  1  0     0  0
  8 24  1  0     0  0
  8 26  1  0     0  0
  8 27  1  0     0  0
  9 25  1  0     0  0
  9 28  1  0     0  0
  9 29  1  0     0  0
 10 11  2  0     0  0
 10 17  1  0     0  0
 11 16  1  0     0  0
 12 18  1  0     0  0
 13 19  2  0     0  0
 14 20  1  0     0  0
 14 25  1  0     0  0
 15 18  2  0     0  0
 16 21  2  0     0  0
 16 24  1  0     0  0
 17 22  2  0     0  0
 19 23  1  0     0  0
 20 23  2  0     0  0
 21 22  1  0     0  0
 26 28  1  0     0  0
 27 29  1  0     0  0
M  END
> <standard_type>
pIC50

> <# Confs.>
25

> <canonical_smiles>
O=C(C1=CC=CC(Cl)=C1F)N(CC2)CCN2CC3=NC(NC4=NNC=C4)=CC=C3

> <standard_relation>
=

> <Publication_ID>
nan

> <predicted_activity_value>
6.275724130399211

> <actual_activity_value>
5.886056647693163

> <Compound>
42

> <standard_units>
nM

> hash
13606552447261492499

$$$$
42_
XXILIB    08252103423D 0   0.00000     0.00000

 29 32  0     1  0            999 V2000
   -6.6973    3.3374   -2.8711 Cl  0  0  0  0  0  1           0  0  0
   -5.6533    1.4251   -0.8743 F   0  0  0  0  0  1           0  0  0
   -4.2077    1.7004    2.1162 O   0  0  0  0  0  2           0  0  0
    4.6880    2.6079   -6.8907 N   0  0  0  0  0  3           0  0  0
    3.9337    1.9419   -6.0027 N   0  0  0  0  0  3           0  0  0
    2.4111    1.2111   -1.9018 N   0  0  0  0  0  3           0  0  0
    3.3285    2.5021   -3.7214 N   0  0  0  0  0  3           0  0  0
   -2.6100    1.0582    0.5434 N   0  0  1  0  0  3           0  0  0
   -0.0000    0.0000    0.0000 N   0  0  1  0  0  3           0  0  0
   -5.4624    3.6357   -1.7101 C   0  0  0  0  0  4           0  0  0
   -5.0717    2.6334   -0.8266 C   0  0  0  0  0  4           0  0  0
    3.9443    2.7256   -4.9121 C   0  0  0  0  0  4           0  0  0
    3.0388    1.2601   -3.1072 C   0  0  0  0  0  4           0  0  0
    2.1383    0.0000   -1.3526 C   0  0  0  0  0  4           0  0  0
    5.1810    3.7867   -6.4233 C   0  0  0  0  0  4           0  0  0
   -4.0717    2.8865    0.1102 C   0  0  0  0  0  4           0  0  0
   -4.8496    4.8892   -1.6569 C   0  0  0  0  0  4           0  0  0
    4.7173    3.8961   -5.1363 C   0  0  0  0  0  4           0  0  0
    3.3967    0.0908   -3.7813 C   0  0  0  0  0  4           0  0  0
    2.4774   -1.1970   -1.9709 C   0  0  0  0  0  4           0  0  0
   -3.4473    4.1323    0.1690 C   0  0  0  0  0  4           0  0  0
   -3.8427    5.1343   -0.7180 C   0  0  0  0  0  4           0  0  0
    3.1129   -1.1428   -3.2034 C   0  0  0  0  0  4           0  0  0
   -3.6509    1.8281    1.0323 C   0  0  0  0  0  4           0  0  0
    1.4663   -0.0000    0.0000 C   0  0  0  0  0  4           0  0  0
   -2.0721   -0.0336    1.3486 C   0  0  0  0  0  4           0  0  0
   -2.0353    1.1675   -0.8002 C   0  0  0  0  0  4           0  0  0
   -0.5443    0.0000    1.3706 C   0  0  0  0  0  4           0  0  0
   -0.5066    1.1685   -0.7425 C   0  0  0  0  0  4           0  0  0
  1 10  1  0     0  0
  2 11  1  0     0  0
  3 24  2  0     0  0
  4  5  1  0     0  0
  4 15  1  0     0  0
  5 12  2  0     0  0
  6 13  1  0     0  0
  6 14  2  0     0  0
  7 12  1  0     0  0
  7 13  1  0     0  0
  8 24  1  0     0  0
  8 26  1  0     0  0
  8 27  1  0     0  0
  9 25  1  0     0  0
  9 28  1  0     0  0
  9 29  1  0     0  0
 10 11  2  0     0  0
 10 17  1  0     0  0
 11 16  1  0     0  0
 12 18  1  0     0  0
 13 19  2  0     0  0
 14 20  1  0     0  0
 14 25  1  0     0  0
 15 18  2  0     0  0
 16 21  2  0     0  0
 16 24  1  0     0  0
 17 22  2  0     0  0
 19 23  1  0     0  0
 20 23  2  0     0  0
 21 22  1  0     0  0
 26 28  1  0     0  0
 27 29  1  0     0  0
M  END
> <standard_type>
pIC50

> <# Confs.>
25

> <canonical_smiles>
O=C(C1=CC=CC(Cl)=C1F)N(CC2)CCN2CC3=NC(NC4=NNC=C4)=CC=C3

> <standard_relation>
=

> <Publication_ID>
nan

> <predicted_activity_value>
6.275724130399211

> <actual_activity_value>
5.886056647693163

> <Compound>
42

> <standard_units>
nM

> hash
13606552447261492499

$$$$
42_
XXILIB    08252103423D 0   0.00000     0.00000

 29 32  0     1  0            999 V2000
   -6.6973    3.3374   -2.8711 Cl  0  0  0  0  0  1           0  0  0
   -5.6533    1.4251   -0.8743 F   0  0  0  0  0  1           0  0  0
   -4.2077    1.7004    2.1162 O   0  0  0  0  0  2           0  0  0
    6.6153   -4.2801    4.4532 N   0  0  0  0  0  3           0  0  0
    5.8681   -3.8427    3.4278 N   0  0  0  0  0  3           0  0  0
    3.1780   -0.8889    1.5020 N   0  0  0  0  0  3           0  0  0
    4.8945   -1.6602    3.0113 N   0  0  0  0  0  3           0  0  0
   -2.6100    1.0582    0.5434 N   0  0  1  0  0  3           0  0  0
   -0.0000    0.0000    0.0000 N   0  0  1  0  0  3           0  0  0
   -5.4624    3.6357   -1.7101 C   0  0  0  0  0  4           0  0  0
   -5.0717    2.6334   -0.8266 C   0  0  0  0  0  4           0  0  0
    5.6186   -2.5581    3.7300 C   0  0  0  0  0  4           0  0  0
    3.7972   -1.9100    2.1527 C   0  0  0  0  0  4           0  0  0
    2.1383   -1.1714    0.6763 C   0  0  0  0  0  4           0  0  0
    6.8619   -3.3349    5.4003 C   0  0  0  0  0  4           0  0  0
   -4.0717    2.8865    0.1102 C   0  0  0  0  0  4           0  0  0
   -4.8496    4.8892   -1.6569 C   0  0  0  0  0  4           0  0  0
    6.2270   -2.1998    4.9626 C   0  0  0  0  0  4           0  0  0
    3.3831   -3.2320    1.9781 C   0  0  0  0  0  4           0  0  0
    1.6756   -2.4649    0.4691 C   0  0  0  0  0  4           0  0  0
   -3.4473    4.1323    0.1690 C   0  0  0  0  0  4           0  0  0
   -3.8427    5.1343   -0.7180 C   0  0  0  0  0  4           0  0  0
    2.3136   -3.5047    1.1307 C   0  0  0  0  0  4           0  0  0
   -3.6509    1.8281    1.0323 C   0  0  0  0  0  4           0  0  0
    1.4663   -0.0000    0.0000 C   0  0  0  0  0  4           0  0  0
   -2.0721   -0.0336    1.3486 C   0  0  0  0  0  4           0  0  0
   -2.0353    1.1675   -0.8002 C   0  0  0  0  0  4           0  0  0
   -0.5443    0.0000    1.3706 C   0  0  0  0  0  4           0  0  0
   -0.5066    1.1685   -0.7425 C   0  0  0  0  0  4           0  0  0
  1 10  1  0     0  0
  2 11  1  0     0  0
  3 24  2  0     0  0
  4  5  1  0     0  0
  4 15  1  0     0  0
  5 12  2  0     0  0
  6 13  1  0     0  0
  6 14  2  0     0  0
  7 12  1  0     0  0
  7 13  1  0     0  0
  8 24  1  0     0  0
  8 26  1  0     0  0
  8 27  1  0     0  0
  9 25  1  0     0  0
  9 28  1  0     0  0
  9 29  1  0     0  0
 10 11  2  0     0  0
 10 17  1  0     0  0
 11 16  1  0     0  0
 12 18  1  0     0  0
 13 19  2  0     0  0
 14 20  1  0     0  0
 14 25  1  0     0  0
 15 18  2  0     0  0
 16 21  2  0     0  0
 16 24  1  0     0  0
 17 22  2  0     0  0
 19 23  1  0     0  0
 20 23  2  0     0  0
 21 22  1  0     0  0
 26 28  1  0     0  0
 27 29  1  0     0  0
M  END
> <standard_type>
pIC50

> <# Confs.>
25

> <canonical_smiles>
O=C(C1=CC=CC(Cl)=C1F)N(CC2)CCN2CC3=NC(NC4=NNC=C4)=CC=C3

> <standard_relation>
=

> <Publication_ID>
nan

> <predicted_activity_value>
6.275724130399211

> <actual_activity_value>
5.886056647693163

> <Compound>
42

> <standard_units>
nM

> hash
13606552447261492499

$$$$
42_
XXILIB    08252103423D 0   0.00000     0.00000

 29 32  0     1  0            999 V2000
   -6.6973    3.3374   -2.8711 Cl  0  0  0  0  0  1           0  0  0
   -5.6533    1.4251   -0.8743 F   0  0  0  0  0  1           0  0  0
   -4.2077    1.7004    2.1162 O   0  0  0  0  0  2           0  0  0
    5.0111   -4.5246    5.6236 N   0  0  0  0  0  3           0  0  0
    4.7592   -3.8724    4.4781 N   0  0  0  0  0  3           0  0  0
    2.4111   -1.0415    1.9997 N   0  0  0  0  0  3           0  0  0
    3.3069   -1.9811    4.0329 N   0  0  0  0  0  3           0  0  0
   -2.6100    1.0582    0.5434 N   0  0  1  0  0  3           0  0  0
   -0.0000    0.0000    0.0000 N   0  0  1  0  0  3           0  0  0
   -5.4624    3.6357   -1.7101 C   0  0  0  0  0  4           0  0  0
   -5.0717    2.6334   -0.8266 C   0  0  0  0  0  4           0  0  0
    3.8837   -2.9173    4.8315 C   0  0  0  0  0  4           0  0  0
    2.9924   -2.0808    2.6564 C   0  0  0  0  0  4           0  0  0
    2.1383   -1.1714    0.6763 C   0  0  0  0  0  4           0  0  0
    4.3408   -4.0309    6.6997 C   0  0  0  0  0  4           0  0  0
   -4.0717    2.8865    0.1102 C   0  0  0  0  0  4           0  0  0
   -4.8496    4.8892   -1.6569 C   0  0  0  0  0  4           0  0  0
    3.5954   -2.9828    6.2210 C   0  0  0  0  0  4           0  0  0
    3.3134   -3.2651    1.9899 C   0  0  0  0  0  4           0  0  0
    2.4261   -2.3274   -0.0384 C   0  0  0  0  0  4           0  0  0
   -3.4473    4.1323    0.1690 C   0  0  0  0  0  4           0  0  0
   -3.8427    5.1343   -0.7180 C   0  0  0  0  0  4           0  0  0
    3.0244   -3.3837    0.6340 C   0  0  0  0  0  4           0  0  0
   -3.6509    1.8281    1.0323 C   0  0  0  0  0  4           0  0  0
    1.4663   -0.0000   -0.0000 C   0  0  0  0  0  4           0  0  0
   -2.0721   -0.0336    1.3486 C   0  0  0  0  0  4           0  0  0
   -2.0353    1.1675   -0.8002 C   0  0  0  0  0  4           0  0  0
   -0.5443    0.0000    1.3706 C   0  0  0  0  0  4           0  0  0
   -0.5066    1.1685   -0.7425 C   0  0  0  0  0  4           0  0  0
  1 10  1  0     0  0
  2 11  1  0     0  0
  3 24  2  0     0  0
  4  5  1  0     0  0
  4 15  1  0     0  0
  5 12  2  0     0  0
  6 13  1  0     0  0
  6 14  2  0     0  0
  7 12  1  0     0  0
  7 13  1  0     0  0
  8 24  1  0     0  0
  8 26  1  0     0  0
  8 27  1  0     0  0
  9 25  1  0     0  0
  9 28  1  0     0  0
  9 29  1  0     0  0
 10 11  2  0     0  0
 10 17  1  0     0  0
 11 16  1  0     0  0
 12 18  1  0     0  0
 13 19  2  0     0  0
 14 20  1  0     0  0
 14 25  1  0     0  0
 15 18  2  0     0  0
 16 21  2  0     0  0
 16 24  1  0     0  0
 17 22  2  0     0  0
 19 23  1  0     0  0
 20 23  2  0     0  0
 21 22  1  0     0  0
 26 28  1  0     0  0
 27 29  1  0     0  0
M  END
> <standard_type>
pIC50

> <# Confs.>
25

> <canonical_smiles>
O=C(C1=CC=CC(Cl)=C1F)N(CC2)CCN2CC3=NC(NC4=NNC=C4)=CC=C3

> <standard_relation>
=

> <Publication_ID>
nan

> <predicted_activity_value>
6.275724130399211

> <actual_activity_value>
5.886056647693163

> <Compound>
42

> <standard_units>
nM

> hash
13606552447261492499

$$$$
42_
XXILIB    08252103423D 0   0.00000     0.00000

 29 32  0     1  0            999 V2000
   -6.6973    3.3374   -2.8711 Cl  0  0  0  0  0  1           0  0  0
   -5.6533    1.4251   -0.8743 F   0  0  0  0  0  1           0  0  0
   -4.2077    1.7004    2.1162 O   0  0  0  0  0  2           0  0  0
    3.2710    7.5974    1.1838 N   0  0  0  0  0  3           0  0  0
    3.0983    6.2738    1.3224 N   0  0  0  0  0  3           0  0  0
    2.4111    2.2526   -0.0979 N   0  0  0  0  0  3           0  0  0
    3.3069    4.4831   -0.3008 N   0  0  0  0  0  3           0  0  0
   -2.6100    1.0582    0.5434 N   0  0  1  0  0  3           0  0  0
   -0.0000    0.0000    0.0000 N   0  0  1  0  0  3           0  0  0
   -5.4624    3.6357   -1.7101 C   0  0  0  0  0  4           0  0  0
   -5.0717    2.6334   -0.8266 C   0  0  0  0  0  4           0  0  0
    3.3480    5.7817    0.0980 C   0  0  0  0  0  4           0  0  0
    2.9924    3.3409    0.4739 C   0  0  0  0  0  4           0  0  0
    2.1383    1.1714    0.6763 C   0  0  0  0  0  4           0  0  0
    3.6243    7.9803   -0.0731 C   0  0  0  0  0  4           0  0  0
   -4.0717    2.8865    0.1102 C   0  0  0  0  0  4           0  0  0
   -4.8496    4.8892   -1.6569 C   0  0  0  0  0  4           0  0  0
    3.6833    6.8230   -0.8083 C   0  0  0  0  0  4           0  0  0
    3.3134    3.3559    1.8327 C   0  0  0  0  0  4           0  0  0
    2.4261    1.1304    2.0348 C   0  0  0  0  0  4           0  0  0
   -3.4473    4.1323    0.1690 C   0  0  0  0  0  4           0  0  0
   -3.8427    5.1343   -0.7180 C   0  0  0  0  0  4           0  0  0
    3.0244    2.2409    2.6134 C   0  0  0  0  0  4           0  0  0
   -3.6509    1.8281    1.0323 C   0  0  0  0  0  4           0  0  0
    1.4663    0.0000    0.0000 C   0  0  0  0  0  4           0  0  0
   -2.0721   -0.0336    1.3486 C   0  0  0  0  0  4           0  0  0
   -2.0353    1.1675   -0.8002 C   0  0  0  0  0  4           0  0  0
   -0.5443    0.0000    1.3706 C   0  0  0  0  0  4           0  0  0
   -0.5066    1.1685   -0.7425 C   0  0  0  0  0  4           0  0  0
  1 10  1  0     0  0
  2 11  1  0     0  0
  3 24  2  0     0  0
  4  5  1  0     0  0
  4 15  1  0     0  0
  5 12  2  0     0  0
  6 13  1  0     0  0
  6 14  2  0     0  0
  7 12  1  0     0  0
  7 13  1  0     0  0
  8 24  1  0     0  0
  8 26  1  0     0  0
  8 27  1  0     0  0
  9 25  1  0     0  0
  9 28  1  0     0  0
  9 29  1  0     0  0
 10 11  2  0     0  0
 10 17  1  0     0  0
 11 16  1  0     0  0
 12 18  1  0     0  0
 13 19  2  0     0  0
 14 20  1  0     0  0
 14 25  1  0     0  0
 15 18  2  0     0  0
 16 21  2  0     0  0
 16 24  1  0     0  0
 17 22  2  0     0  0
 19 23  1  0     0  0
 20 23  2  0     0  0
 21 22  1  0     0  0
 26 28  1  0     0  0
 27 29  1  0     0  0
M  END
> <standard_type>
pIC50

> <# Confs.>
25

> <canonical_smiles>
O=C(C1=CC=CC(Cl)=C1F)N(CC2)CCN2CC3=NC(NC4=NNC=C4)=CC=C3

> <standard_relation>
=

> <Publication_ID>
nan

> <predicted_activity_value>
6.275724130399211

> <actual_activity_value>
5.886056647693163

> <Compound>
42

> <standard_units>
nM

> hash
13606552447261492499

$$$$
42_
XXILIB    08252103423D 0   0.00000     0.00000

 29 32  0     1  0            999 V2000
   -3.1431    6.7047   -0.6279 Cl  0  0  0  0  0  1           0  0  0
   -2.5004    4.3740    1.0719 F   0  0  0  0  0  1           0  0  0
   -4.2077    1.7004    2.1162 O   0  0  0  0  0  2           0  0  0
    5.0111    7.1325    1.1066 N   0  0  0  0  0  3           0  0  0
    4.7592    5.8143    1.1145 N   0  0  0  0  0  3           0  0  0
    2.4111    2.2526   -0.0979 N   0  0  0  0  0  3           0  0  0
    3.3069    4.4831   -0.3008 N   0  0  0  0  0  3           0  0  0
   -2.6100    1.0582    0.5434 N   0  0  1  0  0  3           0  0  0
   -0.0000    0.0000    0.0000 N   0  0  1  0  0  3           0  0  0
   -3.8786    5.1501   -0.6945 C   0  0  0  0  0  4           0  0  0
   -3.4700    4.1418    0.1739 C   0  0  0  0  0  4           0  0  0
    3.8837    5.6429    0.1107 C   0  0  0  0  0  4           0  0  0
    2.9924    3.3409    0.4739 C   0  0  0  0  0  4           0  0  0
    2.1383    1.1714    0.6763 C   0  0  0  0  0  4           0  0  0
    4.3408    7.8176    0.1410 C   0  0  0  0  0  4           0  0  0
   -4.0717    2.8865    0.1102 C   0  0  0  0  0  4           0  0  0
   -4.8910    4.9019   -1.6234 C   0  0  0  0  0  4           0  0  0
    3.5954    6.8789   -0.5273 C   0  0  0  0  0  4           0  0  0
    3.3134    3.3559    1.8327 C   0  0  0  0  0  4           0  0  0
    2.4261    1.1304    2.0348 C   0  0  0  0  0  4           0  0  0
   -5.0885    2.6280   -0.8088 C   0  0  0  0  0  4           0  0  0
   -5.4943    3.6416   -1.6778 C   0  0  0  0  0  4           0  0  0
    3.0244    2.2409    2.6134 C   0  0  0  0  0  4           0  0  0
   -3.6509    1.8281    1.0323 C   0  0  0  0  0  4           0  0  0
    1.4663    0.0000    0.0000 C   0  0  0  0  0  4           0  0  0
   -2.0721   -0.0336    1.3486 C   0  0  0  0  0  4           0  0  0
   -2.0353    1.1675   -0.8002 C   0  0  0  0  0  4           0  0  0
   -0.5443    0.0000    1.3706 C   0  0  0  0  0  4           0  0  0
   -0.5066    1.1685   -0.7425 C   0  0  0  0  0  4           0  0  0
  1 10  1  0     0  0
  2 11  1  0     0  0
  3 24  2  0     0  0
  4  5  1  0     0  0
  4 15  1  0     0  0
  5 12  2  0     0  0
  6 13  1  0     0  0
  6 14  2  0     0  0
  7 12  1  0     0  0
  7 13  1  0     0  0
  8 24  1  0     0  0
  8 26  1  0     0  0
  8 27  1  0     0  0
  9 25  1  0     0  0
  9 28  1  0     0  0
  9 29  1  0     0  0
 10 11  2  0     0  0
 10 17  1  0     0  0
 11 16  1  0     0  0
 12 18  1  0     0  0
 13 19  2  0     0  0
 14 20  1  0     0  0
 14 25  1  0     0  0
 15 18  2  0     0  0
 16 21  2  0     0  0
 16 24  1  0     0  0
 17 22  2  0     0  0
 19 23  1  0     0  0
 20 23  2  0     0  0
 21 22  1  0     0  0
 26 28  1  0     0  0
 27 29  1  0     0  0
M  END
> <standard_type>
pIC50

> <# Confs.>
25

> <canonical_smiles>
O=C(C1=CC=CC(Cl)=C1F)N(CC2)CCN2CC3=NC(NC4=NNC=C4)=CC=C3

> <standard_relation>
=

> <Publication_ID>
nan

> <predicted_activity_value>
6.275724130399211

> <actual_activity_value>
5.886056647693163

> <Compound>
42

> <standard_units>
nM

> hash
13606552447261492499

$$$$
42_
XXILIB    08252103423D 0   0.00000     0.00000

 29 32  0     1  0            999 V2000
   -0.3173   -4.6366    6.5913 Cl  0  0  0  0  0  1           0  0  0
    0.0196   -4.6129    3.6553 F   0  0  0  0  0  1           0  0  0
   -2.0803   -4.4683    1.0624 O   0  0  0  0  0  2           0  0  0
    6.3869    4.2508    4.7309 N   0  0  0  0  0  3           0  0  0
    5.2844    3.7679    4.1373 N   0  0  0  0  0  3           0  0  0
    3.1780    0.8889    1.5020 N   0  0  0  0  0  3           0  0  0
    4.9098    1.6621    2.9927 N   0  0  0  0  0  3           0  0  0
   -0.9248   -2.4525    1.2622 N   0  0  1  0  0  3           0  0  0
    0.0000    0.0000    0.0000 N   0  0  1  0  0  3           0  0  0
   -1.3911   -3.9425    5.4393 C   0  0  0  0  0  4           0  0  0
   -1.1000   -4.0070    4.0795 C   0  0  0  0  0  4           0  0  0
    5.6615    2.5636    3.6779 C   0  0  0  0  0  4           0  0  0
    3.8300    1.9142    2.1128 C   0  0  0  0  0  4           0  0  0
    2.1383    1.1714    0.6763 C   0  0  0  0  0  4           0  0  0
    7.4560    3.4110    4.6782 C   0  0  0  0  0  4           0  0  0
   -1.9761   -3.4405    3.1557 C   0  0  0  0  0  4           0  0  0
   -2.5602   -3.3139    5.8726 C   0  0  0  0  0  4           0  0  0
    7.0203    2.3014    3.9984 C   0  0  0  0  0  4           0  0  0
    3.4420    3.2396    1.9065 C   0  0  0  0  0  4           0  0  0
    1.7119    2.4695    0.4250 C   0  0  0  0  0  4           0  0  0
   -3.1502   -2.8156    3.5754 C   0  0  0  0  0  4           0  0  0
   -3.4376   -2.7527    4.9395 C   0  0  0  0  0  4           0  0  0
    2.3762    3.5127    1.0546 C   0  0  0  0  0  4           0  0  0
   -1.6768   -3.5189    1.7233 C   0  0  0  0  0  4           0  0  0
    1.4663   -0.0000    0.0000 C   0  0  0  0  0  4           0  0  0
   -0.4621   -1.3343    2.0913 C   0  0  0  0  0  4           0  0  0
   -0.3992   -2.4783   -0.1010 C   0  0  0  0  0  4           0  0  0
   -0.5884    0.0000    1.3501 C   0  0  0  0  0  4           0  0  0
   -0.5493   -1.1186   -0.7828 C   0  0  0  0  0  4           0  0  0
  1 10  1  0     0  0
  2 11  1  0     0  0
  3 24  2  0     0  0
  4  5  1  0     0  0
  4 15  1  0     0  0
  5 12  2  0     0  0
  6 13  1  0     0  0
  6 14  2  0     0  0
  7 12  1  0     0  0
  7 13  1  0     0  0
  8 24  1  0     0  0
  8 26  1  0     0  0
  8 27  1  0     0  0
  9 25  1  0     0  0
  9 28  1  0     0  0
  9 29  1  0     0  0
 10 11  2  0     0  0
 10 17  1  0     0  0
 11 16  1  0     0  0
 12 18  1  0     0  0
 13 19  2  0     0  0
 14 20  1  0     0  0
 14 25  1  0     0  0
 15 18  2  0     0  0
 16 21  2  0     0  0
 16 24  1  0     0  0
 17 22  2  0     0  0
 19 23  1  0     0  0
 20 23  2  0     0  0
 21 22  1  0     0  0
 26 28  1  0     0  0
 27 29  1  0     0  0
M  END
> <standard_type>
pIC50

> <# Confs.>
25

> <canonical_smiles>
O=C(C1=CC=CC(Cl)=C1F)N(CC2)CCN2CC3=NC(NC4=NNC=C4)=CC=C3

> <standard_relation>
=

> <Publication_ID>
nan

> <predicted_activity_value>
6.275724130399211

> <actual_activity_value>
5.886056647693163

> <Compound>
42

> <standard_units>
nM

> hash
13606552447261492499

$$$$
42_
XXILIB    08252103423D 0   0.00000     0.00000

 29 32  0     1  0            999 V2000
   -4.8420   -1.9284    5.4977 Cl  0  0  0  0  0  1           0  0  0
   -3.9791   -2.2663    2.6914 F   0  0  0  0  0  1           0  0  0
   -2.0803   -4.4683    1.0624 O   0  0  0  0  0  2           0  0  0
    6.3869    4.2508    4.7309 N   0  0  0  0  0  3           0  0  0
    5.2844    3.7679    4.1373 N   0  0  0  0  0  3           0  0  0
    3.1780    0.8889    1.5020 N   0  0  0  0  0  3           0  0  0
    4.9098    1.6621    2.9927 N   0  0  0  0  0  3           0  0  0
   -0.9248   -2.4525    1.2622 N   0  0  1  0  0  3           0  0  0
    0.0000    0.0000    0.0000 N   0  0  1  0  0  3           0  0  0
   -3.4130   -2.7155    4.9497 C   0  0  0  0  0  4           0  0  0
   -3.1355   -2.7999    3.5882 C   0  0  0  0  0  4           0  0  0
    5.6615    2.5636    3.6779 C   0  0  0  0  0  4           0  0  0
    3.8300    1.9142    2.1128 C   0  0  0  0  0  4           0  0  0
    2.1383    1.1714    0.6763 C   0  0  0  0  0  4           0  0  0
    7.4560    3.4110    4.6782 C   0  0  0  0  0  4           0  0  0
   -1.9761   -3.4405    3.1557 C   0  0  0  0  0  4           0  0  0
   -2.5282   -3.2697    5.8768 C   0  0  0  0  0  4           0  0  0
    7.0203    2.3014    3.9984 C   0  0  0  0  0  4           0  0  0
    3.4420    3.2396    1.9065 C   0  0  0  0  0  4           0  0  0
    1.7119    2.4695    0.4250 C   0  0  0  0  0  4           0  0  0
   -1.0811   -3.9924    4.0721 C   0  0  0  0  0  4           0  0  0
   -1.3637   -3.9061    5.4360 C   0  0  0  0  0  4           0  0  0
    2.3762    3.5127    1.0546 C   0  0  0  0  0  4           0  0  0
   -1.6768   -3.5189    1.7233 C   0  0  0  0  0  4           0  0  0
    1.4663   -0.0000    0.0000 C   0  0  0  0  0  4           0  0  0
   -0.4621   -1.3343    2.0913 C   0  0  0  0  0  4           0  0  0
   -0.3992   -2.4783   -0.1010 C   0  0  0  0  0  4           0  0  0
   -0.5884    0.0000    1.3501 C   0  0  0  0  0  4           0  0  0
   -0.5493   -1.1186   -0.7828 C   0  0  0  0  0  4           0  0  0
  1 10  1  0     0  0
  2 11  1  0     0  0
  3 24  2  0     0  0
  4  5  1  0     0  0
  4 15  1  0     0  0
  5 12  2  0     0  0
  6 13  1  0     0  0
  6 14  2  0     0  0
  7 12  1  0     0  0
  7 13  1  0     0  0
  8 24  1  0     0  0
  8 26  1  0     0  0
  8 27  1  0     0  0
  9 25  1  0     0  0
  9 28  1  0     0  0
  9 29  1  0     0  0
 10 11  2  0     0  0
 10 17  1  0     0  0
 11 16  1  0     0  0
 12 18  1  0     0  0
 13 19  2  0     0  0
 14 20  1  0     0  0
 14 25  1  0     0  0
 15 18  2  0     0  0
 16 21  2  0     0  0
 16 24  1  0     0  0
 17 22  2  0     0  0
 19 23  1  0     0  0
 20 23  2  0     0  0
 21 22  1  0     0  0
 26 28  1  0     0  0
 27 29  1  0     0  0
M  END
> <standard_type>
pIC50

> <# Confs.>
25

> <canonical_smiles>
O=C(C1=CC=CC(Cl)=C1F)N(CC2)CCN2CC3=NC(NC4=NNC=C4)=CC=C3

> <standard_relation>
=

> <Publication_ID>
nan

> <predicted_activity_value>
6.275724130399211

> <actual_activity_value>
5.886056647693163

> <Compound>
42

> <standard_units>
nM

> hash
13606552447261492499

$$$$
42_
XXILIB    08252103423D 0   0.00000     0.00000

 29 32  0     1  0            999 V2000
   -0.3173   -4.6366    6.5913 Cl  0  0  0  0  0  1           0  0  0
    0.0196   -4.6129    3.6553 F   0  0  0  0  0  1           0  0  0
   -2.0803   -4.4683    1.0624 O   0  0  0  0  0  2           0  0  0
    4.6880    4.6636    5.7039 N   0  0  0  0  0  3           0  0  0
    3.9337    4.2275    4.6831 N   0  0  0  0  0  3           0  0  0
    2.4111    1.0415    1.9997 N   0  0  0  0  0  3           0  0  0
    3.3285    1.9718    4.0275 N   0  0  0  0  0  3           0  0  0
   -0.9248   -2.4525    1.2622 N   0  0  1  0  0  3           0  0  0
    0.0000    0.0000    0.0000 N   0  0  1  0  0  3           0  0  0
   -1.3911   -3.9425    5.4393 C   0  0  0  0  0  4           0  0  0
   -1.1000   -4.0070    4.0795 C   0  0  0  0  0  4           0  0  0
    3.9443    2.8913    4.8165 C   0  0  0  0  0  4           0  0  0
    3.0388    2.0609    2.6448 C   0  0  0  0  0  4           0  0  0
    2.1383    1.1714    0.6763 C   0  0  0  0  0  4           0  0  0
    5.1810    3.6694    6.4910 C   0  0  0  0  0  4           0  0  0
   -1.9761   -3.4405    3.1557 C   0  0  0  0  0  4           0  0  0
   -2.5602   -3.3139    5.8726 C   0  0  0  0  0  4           0  0  0
    4.7173    2.5001    5.9423 C   0  0  0  0  0  4           0  0  0
    3.3967    3.2293    1.9693 C   0  0  0  0  0  4           0  0  0
    2.4774    2.3053   -0.0512 C   0  0  0  0  0  4           0  0  0
   -3.1502   -2.8156    3.5754 C   0  0  0  0  0  4           0  0  0
   -3.4376   -2.7527    4.9395 C   0  0  0  0  0  4           0  0  0
    3.1129    3.3457    0.6120 C   0  0  0  0  0  4           0  0  0
   -1.6768   -3.5189    1.7233 C   0  0  0  0  0  4           0  0  0
    1.4663   -0.0000   -0.0000 C   0  0  0  0  0  4           0  0  0
   -0.4621   -1.3343    2.0913 C   0  0  0  0  0  4           0  0  0
   -0.3992   -2.4783   -0.1010 C   0  0  0  0  0  4           0  0  0
   -0.5884    0.0000    1.3501 C   0  0  0  0  0  4           0  0  0
   -0.5493   -1.1186   -0.7828 C   0  0  0  0  0  4           0  0  0
  1 10  1  0     0  0
  2 11  1  0     0  0
  3 24  2  0     0  0
  4  5  1  0     0  0
  4 15  1  0     0  0
  5 12  2  0     0  0
  6 13  1  0     0  0
  6 14  2  0     0  0
  7 12  1  0     0  0
  7 13  1  0     0  0
  8 24  1  0     0  0
  8 26  1  0     0  0
  8 27  1  0     0  0
  9 25  1  0     0  0
  9 28  1  0     0  0
  9 29  1  0     0  0
 10 11  2  0     0  0
 10 17  1  0     0  0
 11 16  1  0     0  0
 12 18  1  0     0  0
 13 19  2  0     0  0
 14 20  1  0     0  0
 14 25  1  0     0  0
 15 18  2  0     0  0
 16 21  2  0     0  0
 16 24  1  0     0  0
 17 22  2  0     0  0
 19 23  1  0     0  0
 20 23  2  0     0  0
 21 22  1  0     0  0
 26 28  1  0     0  0
 27 29  1  0     0  0
M  END
> <standard_type>
pIC50

> <# Confs.>
25

> <canonical_smiles>
O=C(C1=CC=CC(Cl)=C1F)N(CC2)CCN2CC3=NC(NC4=NNC=C4)=CC=C3

> <standard_relation>
=

> <Publication_ID>
nan

> <predicted_activity_value>
6.275724130399211

> <actual_activity_value>
5.886056647693163

> <Compound>
42

> <standard_units>
nM

> hash
13606552447261492499

$$$$
42_
XXILIB    08252103423D 0   0.00000     0.00000

 29 32  0     1  0            999 V2000
   -3.1431    6.7047   -0.6279 Cl  0  0  0  0  0  1           0  0  0
   -2.5004    4.3740    1.0719 F   0  0  0  0  0  1           0  0  0
   -4.2077    1.7004    2.1162 O   0  0  0  0  0  2           0  0  0
    4.0443    5.7149   -2.6873 N   0  0  0  0  0  3           0  0  0
    3.8634    4.8682   -3.7126 N   0  0  0  0  0  3           0  0  0
    2.4111    1.2111   -1.9018 N   0  0  0  0  0  3           0  0  0
    3.3285    2.5021   -3.7214 N   0  0  0  0  0  3           0  0  0
   -2.6100    1.0582    0.5434 N   0  0  1  0  0  3           0  0  0
   -0.0000    0.0000    0.0000 N   0  0  1  0  0  3           0  0  0
   -3.8786    5.1501   -0.6945 C   0  0  0  0  0  4           0  0  0
   -3.4700    4.1418    0.1739 C   0  0  0  0  0  4           0  0  0
    3.5894    3.6936   -3.1219 C   0  0  0  0  0  4           0  0  0
    3.0388    1.2601   -3.1072 C   0  0  0  0  0  4           0  0  0
    2.1383    0.0000   -1.3526 C   0  0  0  0  0  4           0  0  0
    3.8955    5.1404   -1.4630 C   0  0  0  0  0  4           0  0  0
   -4.0717    2.8865    0.1102 C   0  0  0  0  0  4           0  0  0
   -4.8910    4.9019   -1.6234 C   0  0  0  0  0  4           0  0  0
    3.5992    3.8229   -1.7073 C   0  0  0  0  0  4           0  0  0
    3.3967    0.0908   -3.7813 C   0  0  0  0  0  4           0  0  0
    2.4774   -1.1970   -1.9709 C   0  0  0  0  0  4           0  0  0
   -5.0885    2.6280   -0.8088 C   0  0  0  0  0  4           0  0  0
   -5.4943    3.6416   -1.6778 C   0  0  0  0  0  4           0  0  0
    3.1129   -1.1428   -3.2034 C   0  0  0  0  0  4           0  0  0
   -3.6509    1.8281    1.0323 C   0  0  0  0  0  4           0  0  0
    1.4663   -0.0000    0.0000 C   0  0  0  0  0  4           0  0  0
   -2.0721   -0.0336    1.3486 C   0  0  0  0  0  4           0  0  0
   -2.0353    1.1675   -0.8002 C   0  0  0  0  0  4           0  0  0
   -0.5443    0.0000    1.3706 C   0  0  0  0  0  4           0  0  0
   -0.5066    1.1685   -0.7425 C   0  0  0  0  0  4           0  0  0
  1 10  1  0     0  0
  2 11  1  0     0  0
  3 24  2  0     0  0
  4  5  1  0     0  0
  4 15  1  0     0  0
  5 12  2  0     0  0
  6 13  1  0     0  0
  6 14  2  0     0  0
  7 12  1  0     0  0
  7 13  1  0     0  0
  8 24  1  0     0  0
  8 26  1  0     0  0
  8 27  1  0     0  0
  9 25  1  0     0  0
  9 28  1  0     0  0
  9 29  1  0     0  0
 10 11  2  0     0  0
 10 17  1  0     0  0
 11 16  1  0     0  0
 12 18  1  0     0  0
 13 19  2  0     0  0
 14 20  1  0     0  0
 14 25  1  0     0  0
 15 18  2  0     0  0
 16 21  2  0     0  0
 16 24  1  0     0  0
 17 22  2  0     0  0
 19 23  1  0     0  0
 20 23  2  0     0  0
 21 22  1  0     0  0
 26 28  1  0     0  0
 27 29  1  0     0  0
M  END
> <standard_type>
pIC50

> <# Confs.>
25

> <canonical_smiles>
O=C(C1=CC=CC(Cl)=C1F)N(CC2)CCN2CC3=NC(NC4=NNC=C4)=CC=C3

> <standard_relation>
=

> <Publication_ID>
nan

> <predicted_activity_value>
6.275724130399211

> <actual_activity_value>
5.886056647693163

> <Compound>
42

> <standard_units>
nM

> hash
13606552447261492499

$$$$
42_
XXILIB    08252103423D 0   0.00000     0.00000

 29 32  0     1  0            999 V2000
   -6.6973    3.3374   -2.8711 Cl  0  0  0  0  0  1           0  0  0
   -5.6533    1.4251   -0.8743 F   0  0  0  0  0  1           0  0  0
   -4.2077    1.7004    2.1162 O   0  0  0  0  0  2           0  0  0
    4.0443    5.7149   -2.6873 N   0  0  0  0  0  3           0  0  0
    3.8634    4.8682   -3.7126 N   0  0  0  0  0  3           0  0  0
    2.4111    1.2111   -1.9018 N   0  0  0  0  0  3           0  0  0
    3.3285    2.5021   -3.7214 N   0  0  0  0  0  3           0  0  0
   -2.6100    1.0582    0.5434 N   0  0  1  0  0  3           0  0  0
   -0.0000    0.0000    0.0000 N   0  0  1  0  0  3           0  0  0
   -5.4624    3.6357   -1.7101 C   0  0  0  0  0  4           0  0  0
   -5.0717    2.6334   -0.8266 C   0  0  0  0  0  4           0  0  0
    3.5894    3.6936   -3.1219 C   0  0  0  0  0  4           0  0  0
    3.0388    1.2601   -3.1072 C   0  0  0  0  0  4           0  0  0
    2.1383    0.0000   -1.3526 C   0  0  0  0  0  4           0  0  0
    3.8955    5.1404   -1.4630 C   0  0  0  0  0  4           0  0  0
   -4.0717    2.8865    0.1102 C   0  0  0  0  0  4           0  0  0
   -4.8496    4.8892   -1.6569 C   0  0  0  0  0  4           0  0  0
    3.5992    3.8229   -1.7073 C   0  0  0  0  0  4           0  0  0
    3.3967    0.0908   -3.7813 C   0  0  0  0  0  4           0  0  0
    2.4774   -1.1970   -1.9709 C   0  0  0  0  0  4           0  0  0
   -3.4473    4.1323    0.1690 C   0  0  0  0  0  4           0  0  0
   -3.8427    5.1343   -0.7180 C   0  0  0  0  0  4           0  0  0
    3.1129   -1.1428   -3.2034 C   0  0  0  0  0  4           0  0  0
   -3.6509    1.8281    1.0323 C   0  0  0  0  0  4           0  0  0
    1.4663   -0.0000    0.0000 C   0  0  0  0  0  4           0  0  0
   -2.0721   -0.0336    1.3486 C   0  0  0  0  0  4           0  0  0
   -2.0353    1.1675   -0.8002 C   0  0  0  0  0  4           0  0  0
   -0.5443    0.0000    1.3706 C   0  0  0  0  0  4           0  0  0
   -0.5066    1.1685   -0.7425 C   0  0  0  0  0  4           0  0  0
  1 10  1  0     0  0
  2 11  1  0     0  0
  3 24  2  0     0  0
  4  5  1  0     0  0
  4 15  1  0     0  0
  5 12  2  0     0  0
  6 13  1  0     0  0
  6 14  2  0     0  0
  7 12  1  0     0  0
  7 13  1  0     0  0
  8 24  1  0     0  0
  8 26  1  0     0  0
  8 27  1  0     0  0
  9 25  1  0     0  0
  9 28  1  0     0  0
  9 29  1  0     0  0
 10 11  2  0     0  0
 10 17  1  0     0  0
 11 16  1  0     0  0
 12 18  1  0     0  0
 13 19  2  0     0  0
 14 20  1  0     0  0
 14 25  1  0     0  0
 15 18  2  0     0  0
 16 21  2  0     0  0
 16 24  1  0     0  0
 17 22  2  0     0  0
 19 23  1  0     0  0
 20 23  2  0     0  0
 21 22  1  0     0  0
 26 28  1  0     0  0
 27 29  1  0     0  0
M  END
> <standard_type>
pIC50

> <# Confs.>
25

> <canonical_smiles>
O=C(C1=CC=CC(Cl)=C1F)N(CC2)CCN2CC3=NC(NC4=NNC=C4)=CC=C3

> <standard_relation>
=

> <Publication_ID>
nan

> <predicted_activity_value>
6.275724130399211

> <actual_activity_value>
5.886056647693163

> <Compound>
42

> <standard_units>
nM

> hash
13606552447261492499

$$$$
42_
XXILIB    08252103423D 0   0.00000     0.00000

 29 32  0     1  0            999 V2000
   -4.8420   -1.9284    5.4977 Cl  0  0  0  0  0  1           0  0  0
   -3.9791   -2.2663    2.6914 F   0  0  0  0  0  1           0  0  0
   -2.0803   -4.4683    1.0624 O   0  0  0  0  0  2           0  0  0
    4.6880    4.6636    5.7039 N   0  0  0  0  0  3           0  0  0
    3.9337    4.2275    4.6831 N   0  0  0  0  0  3           0  0  0
    2.4111    1.0415    1.9997 N   0  0  0  0  0  3           0  0  0
    3.3285    1.9718    4.0275 N   0  0  0  0  0  3           0  0  0
   -0.9248   -2.4525    1.2622 N   0  0  1  0  0  3           0  0  0
    0.0000    0.0000    0.0000 N   0  0  1  0  0  3           0  0  0
   -3.4130   -2.7155    4.9497 C   0  0  0  0  0  4           0  0  0
   -3.1355   -2.7999    3.5882 C   0  0  0  0  0  4           0  0  0
    3.9443    2.8913    4.8165 C   0  0  0  0  0  4           0  0  0
    3.0388    2.0609    2.6448 C   0  0  0  0  0  4           0  0  0
    2.1383    1.1714    0.6763 C   0  0  0  0  0  4           0  0  0
    5.1810    3.6694    6.4910 C   0  0  0  0  0  4           0  0  0
   -1.9761   -3.4405    3.1557 C   0  0  0  0  0  4           0  0  0
   -2.5282   -3.2697    5.8768 C   0  0  0  0  0  4           0  0  0
    4.7173    2.5001    5.9423 C   0  0  0  0  0  4           0  0  0
    3.3967    3.2293    1.9693 C   0  0  0  0  0  4           0  0  0
    2.4774    2.3053   -0.0512 C   0  0  0  0  0  4           0  0  0
   -1.0811   -3.9924    4.0721 C   0  0  0  0  0  4           0  0  0
   -1.3637   -3.9061    5.4360 C   0  0  0  0  0  4           0  0  0
    3.1129    3.3457    0.6120 C   0  0  0  0  0  4           0  0  0
   -1.6768   -3.5189    1.7233 C   0  0  0  0  0  4           0  0  0
    1.4663   -0.0000   -0.0000 C   0  0  0  0  0  4           0  0  0
   -0.4621   -1.3343    2.0913 C   0  0  0  0  0  4           0  0  0
   -0.3992   -2.4783   -0.1010 C   0  0  0  0  0  4           0  0  0
   -0.5884    0.0000    1.3501 C   0  0  0  0  0  4           0  0  0
   -0.5493   -1.1186   -0.7828 C   0  0  0  0  0  4           0  0  0
  1 10  1  0     0  0
  2 11  1  0     0  0
  3 24  2  0     0  0
  4  5  1  0     0  0
  4 15  1  0     0  0
  5 12  2  0     0  0
  6 13  1  0     0  0
  6 14  2  0     0  0
  7 12  1  0     0  0
  7 13  1  0     0  0
  8 24  1  0     0  0
  8 26  1  0     0  0
  8 27  1  0     0  0
  9 25  1  0     0  0
  9 28  1  0     0  0
  9 29  1  0     0  0
 10 11  2  0     0  0
 10 17  1  0     0  0
 11 16  1  0     0  0
 12 18  1  0     0  0
 13 19  2  0     0  0
 14 20  1  0     0  0
 14 25  1  0     0  0
 15 18  2  0     0  0
 16 21  2  0     0  0
 16 24  1  0     0  0
 17 22  2  0     0  0
 19 23  1  0     0  0
 20 23  2  0     0  0
 21 22  1  0     0  0
 26 28  1  0     0  0
 27 29  1  0     0  0
M  END
> <standard_type>
pIC50

> <# Confs.>
25

> <canonical_smiles>
O=C(C1=CC=CC(Cl)=C1F)N(CC2)CCN2CC3=NC(NC4=NNC=C4)=CC=C3

> <standard_relation>
=

> <Publication_ID>
nan

> <predicted_activity_value>
6.275724130399211

> <actual_activity_value>
5.886056647693163

> <Compound>
42

> <standard_units>
nM

> hash
13606552447261492499

$$$$
42_
XXILIB    08252103423D 0   0.00000     0.00000

 29 32  0     1  0            999 V2000
   -3.1431    6.7047   -0.6279 Cl  0  0  0  0  0  1           0  0  0
   -2.5004    4.3740    1.0719 F   0  0  0  0  0  1           0  0  0
   -4.2077    1.7004    2.1162 O   0  0  0  0  0  2           0  0  0
    5.8650    4.8867   -1.8313 N   0  0  0  0  0  3           0  0  0
    6.1397    3.8253   -2.6053 N   0  0  0  0  0  3           0  0  0
    3.1780    0.8564   -1.5208 N   0  0  0  0  0  3           0  0  0
    4.9098    1.7607   -2.9358 N   0  0  0  0  0  3           0  0  0
   -2.6100    1.0582    0.5434 N   0  0  1  0  0  3           0  0  0
   -0.0000    0.0000    0.0000 N   0  0  1  0  0  3           0  0  0
   -3.8786    5.1501   -0.6945 C   0  0  0  0  0  4           0  0  0
   -3.4700    4.1418    0.1739 C   0  0  0  0  0  4           0  0  0
    5.1117    2.9887   -2.3894 C   0  0  0  0  0  4           0  0  0
    3.8300    0.8727   -2.7141 C   0  0  0  0  0  4           0  0  0
    2.1383    0.0000   -1.3526 C   0  0  0  0  0  4           0  0  0
    4.7050    4.7736   -1.1294 C   0  0  0  0  0  4           0  0  0
   -4.0717    2.8865    0.1102 C   0  0  0  0  0  4           0  0  0
   -4.8910    4.9019   -1.6234 C   0  0  0  0  0  4           0  0  0
    4.1871    3.5486   -1.4677 C   0  0  0  0  0  4           0  0  0
    3.4420    0.0313   -3.7588 C   0  0  0  0  0  4           0  0  0
    1.7119   -0.8667   -2.3512 C   0  0  0  0  0  4           0  0  0
   -5.0885    2.6280   -0.8088 C   0  0  0  0  0  4           0  0  0
   -5.4943    3.6416   -1.6778 C   0  0  0  0  0  4           0  0  0
    2.3762   -0.8430   -3.5694 C   0  0  0  0  0  4           0  0  0
   -3.6509    1.8281    1.0323 C   0  0  0  0  0  4           0  0  0
    1.4663    0.0000   -0.0000 C   0  0  0  0  0  4           0  0  0
   -2.0721   -0.0336    1.3486 C   0  0  0  0  0  4           0  0  0
   -2.0353    1.1675   -0.8002 C   0  0  0  0  0  4           0  0  0
   -0.5443    0.0000    1.3706 C   0  0  0  0  0  4           0  0  0
   -0.5066    1.1685   -0.7425 C   0  0  0  0  0  4           0  0  0
  1 10  1  0     0  0
  2 11  1  0     0  0
  3 24  2  0     0  0
  4  5  1  0     0  0
  4 15  1  0     0  0
  5 12  2  0     0  0
  6 13  1  0     0  0
  6 14  2  0     0  0
  7 12  1  0     0  0
  7 13  1  0     0  0
  8 24  1  0     0  0
  8 26  1  0     0  0
  8 27  1  0     0  0
  9 25  1  0     0  0
  9 28  1  0     0  0
  9 29  1  0     0  0
 10 11  2  0     0  0
 10 17  1  0     0  0
 11 16  1  0     0  0
 12 18  1  0     0  0
 13 19  2  0     0  0
 14 20  1  0     0  0
 14 25  1  0     0  0
 15 18  2  0     0  0
 16 21  2  0     0  0
 16 24  1  0     0  0
 17 22  2  0     0  0
 19 23  1  0     0  0
 20 23  2  0     0  0
 21 22  1  0     0  0
 26 28  1  0     0  0
 27 29  1  0     0  0
M  END
> <standard_type>
pIC50

> <# Confs.>
25

> <canonical_smiles>
O=C(C1=CC=CC(Cl)=C1F)N(CC2)CCN2CC3=NC(NC4=NNC=C4)=CC=C3

> <standard_relation>
=

> <Publication_ID>
nan

> <predicted_activity_value>
6.275724130399211

> <actual_activity_value>
5.886056647693163

> <Compound>
42

> <standard_units>
nM

> hash
13606552447261492499

$$$$
42_
XXILIB    08252103423D 0   0.00000     0.00000

 29 32  0     1  0            999 V2000
   -5.6770    5.9569   -1.3432 Cl  0  0  0  0  0  1           0  0  0
   -3.9960    4.5753    0.6567 F   0  0  0  0  0  1           0  0  0
   -3.8827    2.0812    2.2084 O   0  0  0  0  0  2           0  0  0
    4.6880    2.6079   -6.8907 N   0  0  0  0  0  3           0  0  0
    3.9337    1.9419   -6.0027 N   0  0  0  0  0  3           0  0  0
    2.4111    1.2111   -1.9018 N   0  0  0  0  0  3           0  0  0
    3.3285    2.5021   -3.7214 N   0  0  0  0  0  3           0  0  0
   -2.6100    1.0582    0.5434 N   0  0  1  0  0  3           0  0  0
   -0.0000    0.0000    0.0000 N   0  0  1  0  0  3           0  0  0
   -5.4924    4.2562   -1.1547 C   0  0  0  0  0  4           0  0  0
   -4.6600    3.7456   -0.1626 C   0  0  0  0  0  4           0  0  0
    3.9443    2.7256   -4.9121 C   0  0  0  0  0  4           0  0  0
    3.0388    1.2601   -3.1072 C   0  0  0  0  0  4           0  0  0
    2.1383    0.0000   -1.3526 C   0  0  0  0  0  4           0  0  0
    5.1810    3.7867   -6.4233 C   0  0  0  0  0  4           0  0  0
   -4.5171    2.3668   -0.0199 C   0  0  0  0  0  4           0  0  0
   -6.1831    3.3863   -2.0007 C   0  0  0  0  0  4           0  0  0
    4.7173    3.8961   -5.1363 C   0  0  0  0  0  4           0  0  0
    3.3967    0.0908   -3.7813 C   0  0  0  0  0  4           0  0  0
    2.4774   -1.1970   -1.9709 C   0  0  0  0  0  4           0  0  0
   -5.2067    1.4874   -0.8543 C   0  0  0  0  0  4           0  0  0
   -6.0394    2.0038   -1.8479 C   0  0  0  0  0  4           0  0  0
    3.1129   -1.1428   -3.2034 C   0  0  0  0  0  4           0  0  0
   -3.6509    1.8281    1.0323 C   0  0  0  0  0  4           0  0  0
    1.4663   -0.0000    0.0000 C   0  0  0  0  0  4           0  0  0
   -2.0721   -0.0336    1.3486 C   0  0  0  0  0  4           0  0  0
   -2.0353    1.1675   -0.8002 C   0  0  0  0  0  4           0  0  0
   -0.5443    0.0000    1.3706 C   0  0  0  0  0  4           0  0  0
   -0.5066    1.1685   -0.7425 C   0  0  0  0  0  4           0  0  0
  1 10  1  0     0  0
  2 11  1  0     0  0
  3 24  2  0     0  0
  4  5  1  0     0  0
  4 15  1  0     0  0
  5 12  2  0     0  0
  6 13  1  0     0  0
  6 14  2  0     0  0
  7 12  1  0     0  0
  7 13  1  0     0  0
  8 24  1  0     0  0
  8 26  1  0     0  0
  8 27  1  0     0  0
  9 25  1  0     0  0
  9 28  1  0     0  0
  9 29  1  0     0  0
 10 11  2  0     0  0
 10 17  1  0     0  0
 11 16  1  0     0  0
 12 18  1  0     0  0
 13 19  2  0     0  0
 14 20  1  0     0  0
 14 25  1  0     0  0
 15 18  2  0     0  0
 16 21  2  0     0  0
 16 24  1  0     0  0
 17 22  2  0     0  0
 19 23  1  0     0  0
 20 23  2  0     0  0
 21 22  1  0     0  0
 26 28  1  0     0  0
 27 29  1  0     0  0
M  END
> <standard_type>
pIC50

> <# Confs.>
25

> <canonical_smiles>
O=C(C1=CC=CC(Cl)=C1F)N(CC2)CCN2CC3=NC(NC4=NNC=C4)=CC=C3

> <standard_relation>
=

> <Publication_ID>
nan

> <predicted_activity_value>
6.275724130399211

> <actual_activity_value>
5.886056647693163

> <Compound>
42

> <standard_units>
nM

> hash
13606552447261492499

$$$$
42_
XXILIB    08252103423D 0   0.00000     0.00000

 29 32  0     1  0            999 V2000
   -5.6770    5.9569   -1.3432 Cl  0  0  0  0  0  1           0  0  0
   -3.9960    4.5753    0.6567 F   0  0  0  0  0  1           0  0  0
   -3.8827    2.0812    2.2084 O   0  0  0  0  0  2           0  0  0
    6.3869    1.9716   -6.0468 N   0  0  0  0  0  3           0  0  0
    5.2844    1.6991   -5.3317 N   0  0  0  0  0  3           0  0  0
    3.1780    0.8564   -1.5208 N   0  0  0  0  0  3           0  0  0
    4.9098    1.7607   -2.9358 N   0  0  0  0  0  3           0  0  0
   -2.6100    1.0582    0.5434 N   0  0  1  0  0  3           0  0  0
   -0.0000    0.0000    0.0000 N   0  0  1  0  0  3           0  0  0
   -5.4924    4.2562   -1.1547 C   0  0  0  0  0  4           0  0  0
   -4.6600    3.7456   -0.1626 C   0  0  0  0  0  4           0  0  0
    5.6615    1.9034   -4.0591 C   0  0  0  0  0  4           0  0  0
    3.8300    0.8727   -2.7141 C   0  0  0  0  0  4           0  0  0
    2.1383    0.0000   -1.3526 C   0  0  0  0  0  4           0  0  0
    7.4560    2.3459   -5.2931 C   0  0  0  0  0  4           0  0  0
   -4.5171    2.3668   -0.0199 C   0  0  0  0  0  4           0  0  0
   -6.1831    3.3863   -2.0007 C   0  0  0  0  0  4           0  0  0
    7.0203    2.3120   -3.9923 C   0  0  0  0  0  4           0  0  0
    3.4420    0.0313   -3.7588 C   0  0  0  0  0  4           0  0  0
    1.7119   -0.8667   -2.3512 C   0  0  0  0  0  4           0  0  0
   -5.2067    1.4874   -0.8543 C   0  0  0  0  0  4           0  0  0
   -6.0394    2.0038   -1.8479 C   0  0  0  0  0  4           0  0  0
    2.3762   -0.8430   -3.5694 C   0  0  0  0  0  4           0  0  0
   -3.6509    1.8281    1.0323 C   0  0  0  0  0  4           0  0  0
    1.4663    0.0000   -0.0000 C   0  0  0  0  0  4           0  0  0
   -2.0721   -0.0336    1.3486 C   0  0  0  0  0  4           0  0  0
   -2.0353    1.1675   -0.8002 C   0  0  0  0  0  4           0  0  0
   -0.5443    0.0000    1.3706 C   0  0  0  0  0  4           0  0  0
   -0.5066    1.1685   -0.7425 C   0  0  0  0  0  4           0  0  0
  1 10  1  0     0  0
  2 11  1  0     0  0
  3 24  2  0     0  0
  4  5  1  0     0  0
  4 15  1  0     0  0
  5 12  2  0     0  0
  6 13  1  0     0  0
  6 14  2  0     0  0
  7 12  1  0     0  0
  7 13  1  0     0  0
  8 24  1  0     0  0
  8 26  1  0     0  0
  8 27  1  0     0  0
  9 25  1  0     0  0
  9 28  1  0     0  0
  9 29  1  0     0  0
 10 11  2  0     0  0
 10 17  1  0     0  0
 11 16  1  0     0  0
 12 18  1  0     0  0
 13 19  2  0     0  0
 14 20  1  0     0  0
 14 25  1  0     0  0
 15 18  2  0     0  0
 16 21  2  0     0  0
 16 24  1  0     0  0
 17 22  2  0     0  0
 19 23  1  0     0  0
 20 23  2  0     0  0
 21 22  1  0     0  0
 26 28  1  0     0  0
 27 29  1  0     0  0
M  END
> <standard_type>
pIC50

> <# Confs.>
25

> <canonical_smiles>
O=C(C1=CC=CC(Cl)=C1F)N(CC2)CCN2CC3=NC(NC4=NNC=C4)=CC=C3

> <standard_relation>
=

> <Publication_ID>
nan

> <predicted_activity_value>
6.275724130399211

> <actual_activity_value>
5.886056647693163

> <Compound>
42

> <standard_units>
nM

> hash
13606552447261492499

$$$$
42_
XXILIB    08252103423D 0   0.00000     0.00000

 29 32  0     1  0            999 V2000
   -3.1431    6.7047   -0.6279 Cl  0  0  0  0  0  1           0  0  0
   -2.5004    4.3740    1.0719 F   0  0  0  0  0  1           0  0  0
   -4.2077    1.7004    2.1162 O   0  0  0  0  0  2           0  0  0
    1.9508    5.6649   -3.7758 N   0  0  0  0  0  3           0  0  0
    2.9234    4.8448   -4.2031 N   0  0  0  0  0  3           0  0  0
    2.4111    1.2111   -1.9018 N   0  0  0  0  0  3           0  0  0
    3.3285    2.5021   -3.7214 N   0  0  0  0  0  3           0  0  0
   -2.6100    1.0582    0.5434 N   0  0  1  0  0  3           0  0  0
   -0.0000    0.0000    0.0000 N   0  0  1  0  0  3           0  0  0
   -3.8786    5.1501   -0.6945 C   0  0  0  0  0  4           0  0  0
   -3.4700    4.1418    0.1739 C   0  0  0  0  0  4           0  0  0
    2.6415    3.6701   -3.6165 C   0  0  0  0  0  4           0  0  0
    3.0388    1.2601   -3.1072 C   0  0  0  0  0  4           0  0  0
    2.1383    0.0000   -1.3526 C   0  0  0  0  0  4           0  0  0
    1.0530    5.0711   -2.9436 C   0  0  0  0  0  4           0  0  0
   -4.0717    2.8865    0.1102 C   0  0  0  0  0  4           0  0  0
   -4.8910    4.9019   -1.6234 C   0  0  0  0  0  4           0  0  0
    1.4720    3.7705   -2.8165 C   0  0  0  0  0  4           0  0  0
    3.3967    0.0908   -3.7813 C   0  0  0  0  0  4           0  0  0
    2.4774   -1.1970   -1.9709 C   0  0  0  0  0  4           0  0  0
   -5.0885    2.6280   -0.8088 C   0  0  0  0  0  4           0  0  0
   -5.4943    3.6416   -1.6778 C   0  0  0  0  0  4           0  0  0
    3.1129   -1.1428   -3.2034 C   0  0  0  0  0  4           0  0  0
   -3.6509    1.8281    1.0323 C   0  0  0  0  0  4           0  0  0
    1.4663   -0.0000    0.0000 C   0  0  0  0  0  4           0  0  0
   -2.0721   -0.0336    1.3486 C   0  0  0  0  0  4           0  0  0
   -2.0353    1.1675   -0.8002 C   0  0  0  0  0  4           0  0  0
   -0.5443    0.0000    1.3706 C   0  0  0  0  0  4           0  0  0
   -0.5066    1.1685   -0.7425 C   0  0  0  0  0  4           0  0  0
  1 10  1  0     0  0
  2 11  1  0     0  0
  3 24  2  0     0  0
  4  5  1  0     0  0
  4 15  1  0     0  0
  5 12  2  0     0  0
  6 13  1  0     0  0
  6 14  2  0     0  0
  7 12  1  0     0  0
  7 13  1  0     0  0
  8 24  1  0     0  0
  8 26  1  0     0  0
  8 27  1  0     0  0
  9 25  1  0     0  0
  9 28  1  0     0  0
  9 29  1  0     0  0
 10 11  2  0     0  0
 10 17  1  0     0  0
 11 16  1  0     0  0
 12 18  1  0     0  0
 13 19  2  0     0  0
 14 20  1  0     0  0
 14 25  1  0     0  0
 15 18  2  0     0  0
 16 21  2  0     0  0
 16 24  1  0     0  0
 17 22  2  0     0  0
 19 23  1  0     0  0
 20 23  2  0     0  0
 21 22  1  0     0  0
 26 28  1  0     0  0
 27 29  1  0     0  0
M  END
> <standard_type>
pIC50

> <# Confs.>
25

> <canonical_smiles>
O=C(C1=CC=CC(Cl)=C1F)N(CC2)CCN2CC3=NC(NC4=NNC=C4)=CC=C3

> <standard_relation>
=

> <Publication_ID>
nan

> <predicted_activity_value>
6.275724130399211

> <actual_activity_value>
5.886056647693163

> <Compound>
42

> <standard_units>
nM

> hash
13606552447261492499

$$$$
42_
XXILIB    08252103423D 0   0.00000     0.00000

 29 32  0     1  0            999 V2000
   -6.6973    3.3374   -2.8711 Cl  0  0  0  0  0  1           0  0  0
   -5.6533    1.4251   -0.8743 F   0  0  0  0  0  1           0  0  0
   -4.2077    1.7004    2.1162 O   0  0  0  0  0  2           0  0  0
    4.6880    4.6636    5.7039 N   0  0  0  0  0  3           0  0  0
    3.9337    4.2275    4.6831 N   0  0  0  0  0  3           0  0  0
    2.4111    1.0415    1.9997 N   0  0  0  0  0  3           0  0  0
    3.3285    1.9718    4.0275 N   0  0  0  0  0  3           0  0  0
   -2.6100    1.0582    0.5434 N   0  0  1  0  0  3           0  0  0
   -0.0000    0.0000    0.0000 N   0  0  1  0  0  3           0  0  0
   -5.4624    3.6357   -1.7101 C   0  0  0  0  0  4           0  0  0
   -5.0717    2.6334   -0.8266 C   0  0  0  0  0  4           0  0  0
    3.9443    2.8913    4.8165 C   0  0  0  0  0  4           0  0  0
    3.0388    2.0609    2.6448 C   0  0  0  0  0  4           0  0  0
    2.1383    1.1714    0.6763 C   0  0  0  0  0  4           0  0  0
    5.1810    3.6694    6.4910 C   0  0  0  0  0  4           0  0  0
   -4.0717    2.8865    0.1102 C   0  0  0  0  0  4           0  0  0
   -4.8496    4.8892   -1.6569 C   0  0  0  0  0  4           0  0  0
    4.7173    2.5001    5.9423 C   0  0  0  0  0  4           0  0  0
    3.3967    3.2293    1.9693 C   0  0  0  0  0  4           0  0  0
    2.4774    2.3053   -0.0512 C   0  0  0  0  0  4           0  0  0
   -3.4473    4.1323    0.1690 C   0  0  0  0  0  4           0  0  0
   -3.8427    5.1343   -0.7180 C   0  0  0  0  0  4           0  0  0
    3.1129    3.3457    0.6120 C   0  0  0  0  0  4           0  0  0
   -3.6509    1.8281    1.0323 C   0  0  0  0  0  4           0  0  0
    1.4663   -0.0000   -0.0000 C   0  0  0  0  0  4           0  0  0
   -2.0721   -0.0336    1.3486 C   0  0  0  0  0  4           0  0  0
   -2.0353    1.1675   -0.8002 C   0  0  0  0  0  4           0  0  0
   -0.5443    0.0000    1.3706 C   0  0  0  0  0  4           0  0  0
   -0.5066    1.1685   -0.7425 C   0  0  0  0  0  4           0  0  0
  1 10  1  0     0  0
  2 11  1  0     0  0
  3 24  2  0     0  0
  4  5  1  0     0  0
  4 15  1  0     0  0
  5 12  2  0     0  0
  6 13  1  0     0  0
  6 14  2  0     0  0
  7 12  1  0     0  0
  7 13  1  0     0  0
  8 24  1  0     0  0
  8 26  1  0     0  0
  8 27  1  0     0  0
  9 25  1  0     0  0
  9 28  1  0     0  0
  9 29  1  0     0  0
 10 11  2  0     0  0
 10 17  1  0     0  0
 11 16  1  0     0  0
 12 18  1  0     0  0
 13 19  2  0     0  0
 14 20  1  0     0  0
 14 25  1  0     0  0
 15 18  2  0     0  0
 16 21  2  0     0  0
 16 24  1  0     0  0
 17 22  2  0     0  0
 19 23  1  0     0  0
 20 23  2  0     0  0
 21 22  1  0     0  0
 26 28  1  0     0  0
 27 29  1  0     0  0
M  END
> <standard_type>
pIC50

> <# Confs.>
25

> <canonical_smiles>
O=C(C1=CC=CC(Cl)=C1F)N(CC2)CCN2CC3=NC(NC4=NNC=C4)=CC=C3

> <standard_relation>
=

> <Publication_ID>
nan

> <predicted_activity_value>
6.275724130399211

> <actual_activity_value>
5.886056647693163

> <Compound>
42

> <standard_units>
nM

> hash
13606552447261492499

$$$$
42_
XXILIB    08252103423D 0   0.00000     0.00000

 29 32  0     1  0            999 V2000
   -5.6770    5.9569   -1.3432 Cl  0  0  0  0  0  1           0  0  0
   -3.9960    4.5753    0.6567 F   0  0  0  0  0  1           0  0  0
   -3.8827    2.0812    2.2084 O   0  0  0  0  0  2           0  0  0
    5.0111   -4.5246    5.6236 N   0  0  0  0  0  3           0  0  0
    4.7592   -3.8724    4.4781 N   0  0  0  0  0  3           0  0  0
    2.4111   -1.0415    1.9997 N   0  0  0  0  0  3           0  0  0
    3.3069   -1.9811    4.0329 N   0  0  0  0  0  3           0  0  0
   -2.6100    1.0582    0.5434 N   0  0  1  0  0  3           0  0  0
   -0.0000    0.0000    0.0000 N   0  0  1  0  0  3           0  0  0
   -5.4924    4.2562   -1.1547 C   0  0  0  0  0  4           0  0  0
   -4.6600    3.7456   -0.1626 C   0  0  0  0  0  4           0  0  0
    3.8837   -2.9173    4.8315 C   0  0  0  0  0  4           0  0  0
    2.9924   -2.0808    2.6564 C   0  0  0  0  0  4           0  0  0
    2.1383   -1.1714    0.6763 C   0  0  0  0  0  4           0  0  0
    4.3408   -4.0309    6.6997 C   0  0  0  0  0  4           0  0  0
   -4.5171    2.3668   -0.0199 C   0  0  0  0  0  4           0  0  0
   -6.1831    3.3863   -2.0007 C   0  0  0  0  0  4           0  0  0
    3.5954   -2.9828    6.2210 C   0  0  0  0  0  4           0  0  0
    3.3134   -3.2651    1.9899 C   0  0  0  0  0  4           0  0  0
    2.4261   -2.3274   -0.0384 C   0  0  0  0  0  4           0  0  0
   -5.2067    1.4874   -0.8543 C   0  0  0  0  0  4           0  0  0
   -6.0394    2.0038   -1.8479 C   0  0  0  0  0  4           0  0  0
    3.0244   -3.3837    0.6340 C   0  0  0  0  0  4           0  0  0
   -3.6509    1.8281    1.0323 C   0  0  0  0  0  4           0  0  0
    1.4663   -0.0000   -0.0000 C   0  0  0  0  0  4           0  0  0
   -2.0721   -0.0336    1.3486 C   0  0  0  0  0  4           0  0  0
   -2.0353    1.1675   -0.8002 C   0  0  0  0  0  4           0  0  0
   -0.5443    0.0000    1.3706 C   0  0  0  0  0  4           0  0  0
   -0.5066    1.1685   -0.7425 C   0  0  0  0  0  4           0  0  0
  1 10  1  0     0  0
  2 11  1  0     0  0
  3 24  2  0     0  0
  4  5  1  0     0  0
  4 15  1  0     0  0
  5 12  2  0     0  0
  6 13  1  0     0  0
  6 14  2  0     0  0
  7 12  1  0     0  0
  7 13  1  0     0  0
  8 24  1  0     0  0
  8 26  1  0     0  0
  8 27  1  0     0  0
  9 25  1  0     0  0
  9 28  1  0     0  0
  9 29  1  0     0  0
 10 11  2  0     0  0
 10 17  1  0     0  0
 11 16  1  0     0  0
 12 18  1  0     0  0
 13 19  2  0     0  0
 14 20  1  0     0  0
 14 25  1  0     0  0
 15 18  2  0     0  0
 16 21  2  0     0  0
 16 24  1  0     0  0
 17 22  2  0     0  0
 19 23  1  0     0  0
 20 23  2  0     0  0
 21 22  1  0     0  0
 26 28  1  0     0  0
 27 29  1  0     0  0
M  END
> <standard_type>
pIC50

> <# Confs.>
25

> <canonical_smiles>
O=C(C1=CC=CC(Cl)=C1F)N(CC2)CCN2CC3=NC(NC4=NNC=C4)=CC=C3

> <standard_relation>
=

> <Publication_ID>
nan

> <predicted_activity_value>
6.275724130399211

> <actual_activity_value>
5.886056647693163

> <Compound>
42

> <standard_units>
nM

> hash
13606552447261492499

$$$$
42_
XXILIB    08252103423D 0   0.00000     0.00000

 29 32  0     1  0            999 V2000
   -3.1431    6.7047   -0.6279 Cl  0  0  0  0  0  1           0  0  0
   -2.5004    4.3740    1.0719 F   0  0  0  0  0  1           0  0  0
   -4.2077    1.7004    2.1162 O   0  0  0  0  0  2           0  0  0
    7.3714    3.2539   -1.0345 N   0  0  0  0  0  3           0  0  0
    6.8164    3.0922   -2.2456 N   0  0  0  0  0  3           0  0  0
    3.1780    0.8564   -1.5208 N   0  0  0  0  0  3           0  0  0
    4.9098    1.7607   -2.9358 N   0  0  0  0  0  3           0  0  0
   -2.6100    1.0582    0.5434 N   0  0  1  0  0  3           0  0  0
   -0.0000    0.0000    0.0000 N   0  0  1  0  0  3           0  0  0
   -3.8786    5.1501   -0.6945 C   0  0  0  0  0  4           0  0  0
   -3.4700    4.1418    0.1739 C   0  0  0  0  0  4           0  0  0
    5.7940    2.2495   -2.0267 C   0  0  0  0  0  4           0  0  0
    3.8300    0.8727   -2.7141 C   0  0  0  0  0  4           0  0  0
    2.1383    0.0000   -1.3526 C   0  0  0  0  0  4           0  0  0
    6.7508    2.5567   -0.0445 C   0  0  0  0  0  4           0  0  0
   -4.0717    2.8865    0.1102 C   0  0  0  0  0  4           0  0  0
   -4.8910    4.9019   -1.6234 C   0  0  0  0  0  4           0  0  0
    5.7184    1.8896   -0.6546 C   0  0  0  0  0  4           0  0  0
    3.4420    0.0313   -3.7588 C   0  0  0  0  0  4           0  0  0
    1.7119   -0.8667   -2.3512 C   0  0  0  0  0  4           0  0  0
   -5.0885    2.6280   -0.8088 C   0  0  0  0  0  4           0  0  0
   -5.4943    3.6416   -1.6778 C   0  0  0  0  0  4           0  0  0
    2.3762   -0.8430   -3.5694 C   0  0  0  0  0  4           0  0  0
   -3.6509    1.8281    1.0323 C   0  0  0  0  0  4           0  0  0
    1.4663    0.0000   -0.0000 C   0  0  0  0  0  4           0  0  0
   -2.0721   -0.0336    1.3486 C   0  0  0  0  0  4           0  0  0
   -2.0353    1.1675   -0.8002 C   0  0  0  0  0  4           0  0  0
   -0.5443    0.0000    1.3706 C   0  0  0  0  0  4           0  0  0
   -0.5066    1.1685   -0.7425 C   0  0  0  0  0  4           0  0  0
  1 10  1  0     0  0
  2 11  1  0     0  0
  3 24  2  0     0  0
  4  5  1  0     0  0
  4 15  1  0     0  0
  5 12  2  0     0  0
  6 13  1  0     0  0
  6 14  2  0     0  0
  7 12  1  0     0  0
  7 13  1  0     0  0
  8 24  1  0     0  0
  8 26  1  0     0  0
  8 27  1  0     0  0
  9 25  1  0     0  0
  9 28  1  0     0  0
  9 29  1  0     0  0
 10 11  2  0     0  0
 10 17  1  0     0  0
 11 16  1  0     0  0
 12 18  1  0     0  0
 13 19  2  0     0  0
 14 20  1  0     0  0
 14 25  1  0     0  0
 15 18  2  0     0  0
 16 21  2  0     0  0
 16 24  1  0     0  0
 17 22  2  0     0  0
 19 23  1  0     0  0
 20 23  2  0     0  0
 21 22  1  0     0  0
 26 28  1  0     0  0
 27 29  1  0     0  0
M  END
> <standard_type>
pIC50

> <# Confs.>
25

> <canonical_smiles>
O=C(C1=CC=CC(Cl)=C1F)N(CC2)CCN2CC3=NC(NC4=NNC=C4)=CC=C3

> <standard_relation>
=

> <Publication_ID>
nan

> <predicted_activity_value>
6.275724130399211

> <actual_activity_value>
5.886056647693163

> <Compound>
42

> <standard_units>
nM

> hash
13606552447261492499

$$$$
42_
XXILIB    08252103423D 0   0.00000     0.00000

 29 32  0     1  0            999 V2000
   -3.1431    6.7047   -0.6279 Cl  0  0  0  0  0  1           0  0  0
   -2.5004    4.3740    1.0719 F   0  0  0  0  0  1           0  0  0
   -4.2077    1.7004    2.1162 O   0  0  0  0  0  2           0  0  0
    4.1825    0.5226    6.2395 N   0  0  0  0  0  3           0  0  0
    3.9355   -0.7822    6.0459 N   0  0  0  0  0  3           0  0  0
    2.4111   -1.0415    1.9997 N   0  0  0  0  0  3           0  0  0
    3.3069   -1.9811    4.0329 N   0  0  0  0  0  3           0  0  0
   -2.6100    1.0582    0.5434 N   0  0  1  0  0  3           0  0  0
   -0.0000    0.0000    0.0000 N   0  0  1  0  0  3           0  0  0
   -3.8786    5.1501   -0.6945 C   0  0  0  0  0  4           0  0  0
   -3.4700    4.1418    0.1739 C   0  0  0  0  0  4           0  0  0
    3.6383   -0.8681    4.7391 C   0  0  0  0  0  4           0  0  0
    2.9924   -2.0808    2.6564 C   0  0  0  0  0  4           0  0  0
    2.1383   -1.1714    0.6763 C   0  0  0  0  0  4           0  0  0
    4.0618    1.2807    5.1161 C   0  0  0  0  0  4           0  0  0
   -4.0717    2.8865    0.1102 C   0  0  0  0  0  4           0  0  0
   -4.8910    4.9019   -1.6234 C   0  0  0  0  0  4           0  0  0
    3.7074    0.4078    4.1184 C   0  0  0  0  0  4           0  0  0
    3.3134   -3.2651    1.9899 C   0  0  0  0  0  4           0  0  0
    2.4261   -2.3274   -0.0384 C   0  0  0  0  0  4           0  0  0
   -5.0885    2.6280   -0.8088 C   0  0  0  0  0  4           0  0  0
   -5.4943    3.6416   -1.6778 C   0  0  0  0  0  4           0  0  0
    3.0244   -3.3837    0.6340 C   0  0  0  0  0  4           0  0  0
   -3.6509    1.8281    1.0323 C   0  0  0  0  0  4           0  0  0
    1.4663   -0.0000   -0.0000 C   0  0  0  0  0  4           0  0  0
   -2.0721   -0.0336    1.3486 C   0  0  0  0  0  4           0  0  0
   -2.0353    1.1675   -0.8002 C   0  0  0  0  0  4           0  0  0
   -0.5443    0.0000    1.3706 C   0  0  0  0  0  4           0  0  0
   -0.5066    1.1685   -0.7425 C   0  0  0  0  0  4           0  0  0
  1 10  1  0     0  0
  2 11  1  0     0  0
  3 24  2  0     0  0
  4  5  1  0     0  0
  4 15  1  0     0  0
  5 12  2  0     0  0
  6 13  1  0     0  0
  6 14  2  0     0  0
  7 12  1  0     0  0
  7 13  1  0     0  0
  8 24  1  0     0  0
  8 26  1  0     0  0
  8 27  1  0     0  0
  9 25  1  0     0  0
  9 28  1  0     0  0
  9 29  1  0     0  0
 10 11  2  0     0  0
 10 17  1  0     0  0
 11 16  1  0     0  0
 12 18  1  0     0  0
 13 19  2  0     0  0
 14 20  1  0     0  0
 14 25  1  0     0  0
 15 18  2  0     0  0
 16 21  2  0     0  0
 16 24  1  0     0  0
 17 22  2  0     0  0
 19 23  1  0     0  0
 20 23  2  0     0  0
 21 22  1  0     0  0
 26 28  1  0     0  0
 27 29  1  0     0  0
M  END
> <standard_type>
pIC50

> <# Confs.>
25

> <canonical_smiles>
O=C(C1=CC=CC(Cl)=C1F)N(CC2)CCN2CC3=NC(NC4=NNC=C4)=CC=C3

> <standard_relation>
=

> <Publication_ID>
nan

> <predicted_activity_value>
6.275724130399211

> <actual_activity_value>
5.886056647693163

> <Compound>
42

> <standard_units>
nM

> hash
13606552447261492499

$$$$
42_
XXILIB    08252103423D 0   0.00000     0.00000

 29 32  0     1  0            999 V2000
   -3.1431    6.7047   -0.6279 Cl  0  0  0  0  0  1           0  0  0
   -2.5004    4.3740    1.0719 F   0  0  0  0  0  1           0  0  0
   -4.2077    1.7004    2.1162 O   0  0  0  0  0  2           0  0  0
    2.0504   -0.3276    6.7882 N   0  0  0  0  0  3           0  0  0
    2.9767   -1.1626    6.2925 N   0  0  0  0  0  3           0  0  0
    2.4111   -1.0415    1.9997 N   0  0  0  0  0  3           0  0  0
    3.3069   -1.9811    4.0329 N   0  0  0  0  0  3           0  0  0
   -2.6100    1.0582    0.5434 N   0  0  1  0  0  3           0  0  0
   -0.0000    0.0000    0.0000 N   0  0  1  0  0  3           0  0  0
   -3.8786    5.1501   -0.6945 C   0  0  0  0  0  4           0  0  0
   -3.4700    4.1418    0.1739 C   0  0  0  0  0  4           0  0  0
    2.6716   -1.2517    4.9877 C   0  0  0  0  0  4           0  0  0
    2.9924   -2.0808    2.6564 C   0  0  0  0  0  4           0  0  0
    2.1383   -1.1714    0.6763 C   0  0  0  0  0  4           0  0  0
    1.1646    0.1284    5.8615 C   0  0  0  0  0  4           0  0  0
   -4.0717    2.8865    0.1102 C   0  0  0  0  0  4           0  0  0
   -4.8910    4.9019   -1.6234 C   0  0  0  0  0  4           0  0  0
    1.5383   -0.4538    4.6763 C   0  0  0  0  0  4           0  0  0
    3.3134   -3.2651    1.9899 C   0  0  0  0  0  4           0  0  0
    2.4261   -2.3274   -0.0384 C   0  0  0  0  0  4           0  0  0
   -5.0885    2.6280   -0.8088 C   0  0  0  0  0  4           0  0  0
   -5.4943    3.6416   -1.6778 C   0  0  0  0  0  4           0  0  0
    3.0244   -3.3837    0.6340 C   0  0  0  0  0  4           0  0  0
   -3.6509    1.8281    1.0323 C   0  0  0  0  0  4           0  0  0
    1.4663   -0.0000   -0.0000 C   0  0  0  0  0  4           0  0  0
   -2.0721   -0.0336    1.3486 C   0  0  0  0  0  4           0  0  0
   -2.0353    1.1675   -0.8002 C   0  0  0  0  0  4           0  0  0
   -0.5443    0.0000    1.3706 C   0  0  0  0  0  4           0  0  0
   -0.5066    1.1685   -0.7425 C   0  0  0  0  0  4           0  0  0
  1 10  1  0     0  0
  2 11  1  0     0  0
  3 24  2  0     0  0
  4  5  1  0     0  0
  4 15  1  0     0  0
  5 12  2  0     0  0
  6 13  1  0     0  0
  6 14  2  0     0  0
  7 12  1  0     0  0
  7 13  1  0     0  0
  8 24  1  0     0  0
  8 26  1  0     0  0
  8 27  1  0     0  0
  9 25  1  0     0  0
  9 28  1  0     0  0
  9 29  1  0     0  0
 10 11  2  0     0  0
 10 17  1  0     0  0
 11 16  1  0     0  0
 12 18  1  0     0  0
 13 19  2  0     0  0
 14 20  1  0     0  0
 14 25  1  0     0  0
 15 18  2  0     0  0
 16 21  2  0     0  0
 16 24  1  0     0  0
 17 22  2  0     0  0
 19 23  1  0     0  0
 20 23  2  0     0  0
 21 22  1  0     0  0
 26 28  1  0     0  0
 27 29  1  0     0  0
M  END
> <standard_type>
pIC50

> <# Confs.>
25

> <canonical_smiles>
O=C(C1=CC=CC(Cl)=C1F)N(CC2)CCN2CC3=NC(NC4=NNC=C4)=CC=C3

> <standard_relation>
=

> <Publication_ID>
nan

> <predicted_activity_value>
6.275724130399211

> <actual_activity_value>
5.886056647693163

> <Compound>
42

> <standard_units>
nM

> hash
13606552447261492499

$$$$
