0
  CDPL    08252113263D 1   1.00000     0.00000

 41 44  0     0  0            999 V2000
    0.0000    0.0000    0.0000 F   0  0  0  0  0  1           0  0  0
    0.0000    0.0000    0.0000 C   0  0  0  0  0  4           0  0  0
    0.0000    0.0000    0.0000 C   0  0  0  0  0  4           0  0  0
    0.0000    0.0000    0.0000 C   0  0  0  0  0  4           0  0  0
    0.0000    0.0000    0.0000 N   0  0  0  0  0  3           0  0  0
    0.0000    0.0000    0.0000 C   0  0  0  0  0  4           0  0  0
    0.0000    0.0000    0.0000 C   0  0  0  0  0  4           0  0  0
    0.0000    0.0000    0.0000 C   0  0  0  0  0  4           0  0  0
    0.0000    0.0000    0.0000 C   0  0  0  0  0  4           0  0  0
    0.0000    0.0000    0.0000 C   0  0  0  0  0  4           0  0  0
    0.0000    0.0000    0.0000 C   0  0  0  0  0  4           0  0  0
    0.0000    0.0000    0.0000 C   0  0  0  0  0  4           0  0  0
    0.0000    0.0000    0.0000 N   0  0  0  0  0  3           0  0  0
    0.0000    0.0000    0.0000 C   0  0  0  0  0  4           0  0  0
    0.0000    0.0000    0.0000 N   0  0  0  0  0  3           0  0  0
    0.0000    0.0000    0.0000 C   0  0  0  0  0  4           0  0  0
    0.0000    0.0000    0.0000 C   0  0  0  0  0  4           0  0  0
    0.0000    0.0000    0.0000 C   0  0  0  0  0  4           0  0  0
    0.0000    0.0000    0.0000 C   0  0  0  0  0  4           0  0  0
    0.0000    0.0000    0.0000 C   0  0  0  0  0  4           0  0  0
    0.0000    0.0000    0.0000 O   0  0  0  0  0  2           0  0  0
    0.0000    0.0000    0.0000 C   0  0  0  0  0  4           0  0  0
    0.0000    0.0000    0.0000 C   0  0  0  0  0  4           0  0  0
    0.0000    0.0000    0.0000 C   0  0  0  0  0  4           0  0  0
    0.0000    0.0000    0.0000 N   0  0  0  0  0  3           0  0  0
    0.0000    0.0000    0.0000 C   0  0  0  0  0  4           0  0  0
    0.0000    0.0000    0.0000 C   0  0  0  0  0  4           0  0  0
    0.0000    0.0000    0.0000 O   0  0  0  0  0  2           0  0  0
    0.0000    0.0000    0.0000 P   0  0  0  0  0  5           0  0  0
    0.0000    0.0000    0.0000 O   0  0  0  0  0  2           0  0  0
    0.0000    0.0000    0.0000 O   0  0  0  0  0  2           0  0  0
    0.0000    0.0000    0.0000 O   0  0  0  0  0  2           0  0  0
    0.0000    0.0000    0.0000 C   0  0  0  0  0  4           0  0  0
    0.0000    0.0000    0.0000 C   0  0  0  0  0  4           0  0  0
    0.0000    0.0000    0.0000 C   0  0  0  0  0  4           0  0  0
    0.0000    0.0000    0.0000 N   0  0  0  0  0  3           0  0  0
    0.0000    0.0000    0.0000 N   0  0  0  0  0  3           0  0  0
    0.0000    0.0000    0.0000 O   0  0  0  0  0  2           0  0  0
    0.0000    0.0000    0.0000 C   0  0  0  0  0  4           0  0  0
    0.0000    0.0000    0.0000 C   0  0  0  0  0  4           0  0  0
    0.0000    0.0000    0.0000 C   0  0  0  0  0  4           0  0  0
  1  2  1  0     0  0
  2  3  2  0     0  0
  3  4  1  0     0  0
  4  5  1  0     0  0
  5  6  1  0     0  0
  6  7  1  0     0  0
  7  8  1  0     0  0
  8  9  2  0     0  0
  9 10  1  0     0  0
 10 11  1  0     0  0
 11 12  1  0     0  0
 12 13  2  0     0  0
 13 14  1  0     0  0
 14 15  2  0     0  0
 15 16  1  0     0  0
 12 17  1  0     0  0
 16 17  2  0     0  0
 17 18  1  0     0  0
 18 19  2  0     0  0
 19 20  1  0     0  0
 20 21  1  0     0  0
 21 22  1  0     0  0
 22 23  1  0     0  0
 23 24  1  0     0  0
 24 25  1  0     0  0
 25 26  1  0     0  0
 26 27  1  0     0  0
 27 28  1  0     0  0
 28 29  1  0     0  0
 29 30  1  0     0  0
 29 31  1  0     0  0
 29 32  2  0     0  0
 25 33  1  0     0  0
 33 34  1  0     0  0
 16 35  1  0     0  0
 20 35  2  0     0  0
 10 36  2  0     0  0
  8 37  1  0     0  0
 36 37  1  0     0  0
  6 38  2  0     0  0
  4 39  2  0     0  0
 39 40  1  0     0  0
  2 41  1  0     0  0
 40 41  2  0     0  0
M  END
> <Compound>
1

> <canonical_smiles>
FC1=CC(NC(CC2=CC(CC3=NC=NC4=C3C=CC(OCCCN(CCOP(O)(O)=O)CC)=C4)=NN2)=O)=CC=C1

> <standard_type>
pIC50

> <standard_units>
nM

> <standard_relation>
=

> <actual_activity_value>
9.522878745280337

> <predicted_activity_value>
9.455931955649724

> <Publication_ID>
Wang_2009

$$$$
1
  CDPL    08252113263D 1   1.00000     0.00000

 41 45  0     0  0            999 V2000
    0.0000    0.0000    0.0000 F   0  0  0  0  0  1           0  0  0
    0.0000    0.0000    0.0000 C   0  0  0  0  0  4           0  0  0
    0.0000    0.0000    0.0000 C   0  0  0  0  0  4           0  0  0
    0.0000    0.0000    0.0000 C   0  0  0  0  0  4           0  0  0
    0.0000    0.0000    0.0000 N   0  0  0  0  0  3           0  0  0
    0.0000    0.0000    0.0000 C   0  0  0  0  0  4           0  0  0
    0.0000    0.0000    0.0000 C   0  0  0  0  0  4           0  0  0
    0.0000    0.0000    0.0000 C   0  0  0  0  0  4           0  0  0
    0.0000    0.0000    0.0000 C   0  0  0  0  0  4           0  0  0
    0.0000    0.0000    0.0000 N   0  0  0  0  0  3           0  0  0
    0.0000    0.0000    0.0000 C   0  0  0  0  0  4           0  0  0
    0.0000    0.0000    0.0000 N   0  0  0  0  0  3           0  0  0
    0.0000    0.0000    0.0000 C   0  0  0  0  0  4           0  0  0
    0.0000    0.0000    0.0000 C   0  0  0  0  0  4           0  0  0
    0.0000    0.0000    0.0000 C   0  0  0  0  0  4           0  0  0
    0.0000    0.0000    0.0000 N   0  0  0  0  0  3           0  0  0
    0.0000    0.0000    0.0000 C   0  0  0  0  0  4           0  0  0
    0.0000    0.0000    0.0000 N   0  0  0  0  0  3           0  0  0
    0.0000    0.0000    0.0000 C   0  0  0  0  0  4           0  0  0
    0.0000    0.0000    0.0000 C   0  0  0  0  0  4           0  0  0
    0.0000    0.0000    0.0000 C   0  0  0  0  0  4           0  0  0
    0.0000    0.0000    0.0000 O   0  0  0  0  0  2           0  0  0
    0.0000    0.0000    0.0000 C   0  0  0  0  0  4           0  0  0
    0.0000    0.0000    0.0000 C   0  0  0  0  0  4           0  0  0
    0.0000    0.0000    0.0000 C   0  0  0  0  0  4           0  0  0
    0.0000    0.0000    0.0000 N   0  0  0  0  0  3           0  0  0
    0.0000    0.0000    0.0000 C   0  0  0  0  0  4           0  0  0
    0.0000    0.0000    0.0000 C   0  0  0  0  0  4           0  0  0
    0.0000    0.0000    0.0000 N   0  0  0  0  0  3           0  0  0
    0.0000    0.0000    0.0000 C   0  0  0  0  0  4           0  0  0
    0.0000    0.0000    0.0000 O   0  0  0  0  0  2           0  0  0
    0.0000    0.0000    0.0000 C   0  0  0  0  0  4           0  0  0
    0.0000    0.0000    0.0000 C   0  0  0  0  0  4           0  0  0
    0.0000    0.0000    0.0000 C   0  0  0  0  0  4           0  0  0
    0.0000    0.0000    0.0000 O   0  0  0  0  0  2           0  0  0
    0.0000    0.0000    0.0000 C   0  0  0  0  0  4           0  0  0
    0.0000    0.0000    0.0000 S   0  0  0  0  0  2           0  0  0
    0.0000    0.0000    0.0000 O   0  0  0  0  0  2           0  0  0
    0.0000    0.0000    0.0000 C   0  0  0  0  0  4           0  0  0
    0.0000    0.0000    0.0000 C   0  0  0  0  0  4           0  0  0
    0.0000    0.0000    0.0000 C   0  0  0  0  0  4           0  0  0
  1  2  1  0     0  0
  2  3  2  0     0  0
  3  4  1  0     0  0
  4  5  1  0     0  0
  5  6  1  0     0  0
  6  7  1  0     0  0
  7  8  1  0     0  0
  8  9  2  0     0  0
  9 10  1  0     0  0
 10 11  2  0     0  0
 11 12  1  0     0  0
 12 13  1  0     0  0
 13 14  1  0     0  0
 14 15  2  0     0  0
 13 16  2  0     0  0
 16 17  1  0     0  0
 17 18  2  0     0  0
 14 19  1  0     0  0
 18 19  1  0     0  0
 19 20  2  0     0  0
 20 21  1  0     0  0
 21 22  1  0     0  0
 22 23  1  0     0  0
 23 24  1  0     0  0
 24 25  1  0     0  0
 25 26  1  0     0  0
 26 27  1  0     0  0
 27 28  1  0     0  0
 28 29  1  0     0  0
 29 30  1  0     0  0
 30 31  1  0     0  0
 29 32  1  0     0  0
 26 33  1  0     0  0
 32 33  1  0     0  0
 15 34  1  0     0  0
 21 34  2  0     0  0
 34 35  1  0     0  0
 35 36  1  0     0  0
  8 37  1  0     0  0
 11 37  1  0     0  0
  6 38  2  0     0  0
  4 39  2  0     0  0
 39 40  1  0     0  0
  2 41  1  0     0  0
 40 41  2  0     0  0
M  END
> <Compound>
2

> <canonical_smiles>
FC1=CC(NC(CC2=CN=C(NC(C3=C4)=NC=NC3=CC(OCCCN5CCN(CO)CC5)=C4OC)S2)=O)=CC=C1

> <standard_type>
pIC50

> <standard_units>
nM

> <standard_relation>
=

> <actual_activity_value>
8.154901959985743

> <predicted_activity_value>
8.080921907623926

> <Publication_ID>
nan

$$$$
2
  CDPL    08252113263D 1   1.00000     0.00000

 41 45  0     0  0            999 V2000
    0.0000    0.0000    0.0000 F   0  0  0  0  0  1           0  0  0
    0.0000    0.0000    0.0000 C   0  0  0  0  0  4           0  0  0
    0.0000    0.0000    0.0000 C   0  0  0  0  0  4           0  0  0
    0.0000    0.0000    0.0000 C   0  0  0  0  0  4           0  0  0
    0.0000    0.0000    0.0000 N   0  0  0  0  0  3           0  0  0
    0.0000    0.0000    0.0000 C   0  0  0  0  0  4           0  0  0
    0.0000    0.0000    0.0000 C   0  0  0  0  0  4           0  0  0
    0.0000    0.0000    0.0000 C   0  0  0  0  0  4           0  0  0
    0.0000    0.0000    0.0000 C   0  0  0  0  0  4           0  0  0
    0.0000    0.0000    0.0000 N   0  0  0  0  0  3           0  0  0
    0.0000    0.0000    0.0000 C   0  0  0  0  0  4           0  0  0
    0.0000    0.0000    0.0000 N   0  0  0  0  0  3           0  0  0
    0.0000    0.0000    0.0000 C   0  0  0  0  0  4           0  0  0
    0.0000    0.0000    0.0000 C   0  0  0  0  0  4           0  0  0
    0.0000    0.0000    0.0000 C   0  0  0  0  0  4           0  0  0
    0.0000    0.0000    0.0000 N   0  0  0  0  0  3           0  0  0
    0.0000    0.0000    0.0000 C   0  0  0  0  0  4           0  0  0
    0.0000    0.0000    0.0000 N   0  0  0  0  0  3           0  0  0
    0.0000    0.0000    0.0000 C   0  0  0  0  0  4           0  0  0
    0.0000    0.0000    0.0000 C   0  0  0  0  0  4           0  0  0
    0.0000    0.0000    0.0000 C   0  0  0  0  0  4           0  0  0
    0.0000    0.0000    0.0000 O   0  0  0  0  0  2           0  0  0
    0.0000    0.0000    0.0000 C   0  0  0  0  0  4           0  0  0
    0.0000    0.0000    0.0000 C   0  0  0  0  0  4           0  0  0
    0.0000    0.0000    0.0000 C   0  0  0  0  0  4           0  0  0
    0.0000    0.0000    0.0000 N   0  0  0  0  0  3           0  0  0
    0.0000    0.0000    0.0000 C   0  0  0  0  0  4           0  0  0
    0.0000    0.0000    0.0000 C   0  0  0  0  0  4           0  0  0
    0.0000    0.0000    0.0000 C   0  0  0  0  0  4           0  0  0
    0.0000    0.0000    0.0000 C   0  0  0  0  0  4           0  0  0
    0.0000    0.0000    0.0000 O   0  0  0  0  0  2           0  0  0
    0.0000    0.0000    0.0000 C   0  0  0  0  0  4           0  0  0
    0.0000    0.0000    0.0000 C   0  0  0  0  0  4           0  0  0
    0.0000    0.0000    0.0000 C   0  0  0  0  0  4           0  0  0
    0.0000    0.0000    0.0000 O   0  0  0  0  0  2           0  0  0
    0.0000    0.0000    0.0000 C   0  0  0  0  0  4           0  0  0
    0.0000    0.0000    0.0000 S   0  0  0  0  0  2           0  0  0
    0.0000    0.0000    0.0000 O   0  0  0  0  0  2           0  0  0
    0.0000    0.0000    0.0000 C   0  0  0  0  0  4           0  0  0
    0.0000    0.0000    0.0000 C   0  0  0  0  0  4           0  0  0
    0.0000    0.0000    0.0000 C   0  0  0  0  0  4           0  0  0
  1  2  1  0     0  0
  2  3  2  0     0  0
  3  4  1  0     0  0
  4  5  1  0     0  0
  5  6  1  0     0  0
  6  7  1  0     0  0
  7  8  1  0     0  0
  8  9  2  0     0  0
  9 10  1  0     0  0
 10 11  2  0     0  0
 11 12  1  0     0  0
 12 13  1  0     0  0
 13 14  1  0     0  0
 14 15  2  0     0  0
 13 16  2  0     0  0
 16 17  1  0     0  0
 17 18  2  0     0  0
 14 19  1  0     0  0
 18 19  1  0     0  0
 19 20  2  0     0  0
 20 21  1  0     0  0
 21 22  1  0     0  0
 22 23  1  0     0  0
 23 24  1  0     0  0
 24 25  1  0     0  0
 25 26  1  0     0  0
 26 27  1  0     0  0
 27 28  1  0     0  0
 28 29  1  0     0  0
 29 30  1  0     0  0
 30 31  1  0     0  0
 29 32  1  0     0  0
 26 33  1  0     0  0
 32 33  1  0     0  0
 15 34  1  0     0  0
 21 34  2  0     0  0
 34 35  1  0     0  0
 35 36  1  0     0  0
  8 37  1  0     0  0
 11 37  1  0     0  0
  6 38  2  0     0  0
  4 39  2  0     0  0
 39 40  1  0     0  0
  2 41  1  0     0  0
 40 41  2  0     0  0
M  END
> <Compound>
3

> <canonical_smiles>
FC1=CC(NC(CC2=CN=C(NC(C3=C4)=NC=NC3=CC(OCCCN5CCC(CO)CC5)=C4OC)S2)=O)=CC=C1

> <standard_type>
pIC50

> <standard_units>
nM

> <standard_relation>
=

> <actual_activity_value>
8.154901959985743

> <predicted_activity_value>
8.013228265733755

> <Publication_ID>
nan

$$$$
3
  CDPL    08252113263D 1   1.00000     0.00000

 34 37  0     0  0            999 V2000
    0.0000    0.0000    0.0000 F   0  0  0  0  0  1           0  0  0
    0.0000    0.0000    0.0000 C   0  0  0  0  0  4           0  0  0
    0.0000    0.0000    0.0000 C   0  0  0  0  0  4           0  0  0
    0.0000    0.0000    0.0000 C   0  0  0  0  0  4           0  0  0
    0.0000    0.0000    0.0000 N   0  0  0  0  0  3           0  0  0
    0.0000    0.0000    0.0000 C   0  0  0  0  0  4           0  0  0
    0.0000    0.0000    0.0000 C   0  0  0  0  0  4           0  0  0
    0.0000    0.0000    0.0000 C   0  0  0  0  0  4           0  0  0
    0.0000    0.0000    0.0000 C   0  0  0  0  0  4           0  0  0
    0.0000    0.0000    0.0000 N   0  0  0  0  0  3           0  0  0
    0.0000    0.0000    0.0000 C   0  0  0  0  0  4           0  0  0
    0.0000    0.0000    0.0000 N   0  0  0  0  0  3           0  0  0
    0.0000    0.0000    0.0000 C   0  0  0  0  0  4           0  0  0
    0.0000    0.0000    0.0000 N   0  0  0  0  0  3           0  0  0
    0.0000    0.0000    0.0000 C   0  0  0  0  0  4           0  0  0
    0.0000    0.0000    0.0000 N   0  0  0  0  0  3           0  0  0
    0.0000    0.0000    0.0000 C   0  0  0  0  0  4           0  0  0
    0.0000    0.0000    0.0000 C   0  0  0  0  0  4           0  0  0
    0.0000    0.0000    0.0000 C   0  0  0  0  0  4           0  0  0
    0.0000    0.0000    0.0000 C   0  0  0  0  0  4           0  0  0
    0.0000    0.0000    0.0000 O   0  0  0  0  0  2           0  0  0
    0.0000    0.0000    0.0000 C   0  0  0  0  0  4           0  0  0
    0.0000    0.0000    0.0000 C   0  0  0  0  0  4           0  0  0
    0.0000    0.0000    0.0000 O   0  0  0  0  0  2           0  0  0
    0.0000    0.0000    0.0000 C   0  0  0  0  0  4           0  0  0
    0.0000    0.0000    0.0000 C   0  0  0  0  0  4           0  0  0
    0.0000    0.0000    0.0000 O   0  0  0  0  0  2           0  0  0
    0.0000    0.0000    0.0000 C   0  0  0  0  0  4           0  0  0
    0.0000    0.0000    0.0000 C   0  0  0  0  0  4           0  0  0
    0.0000    0.0000    0.0000 S   0  0  0  0  0  2           0  0  0
    0.0000    0.0000    0.0000 O   0  0  0  0  0  2           0  0  0
    0.0000    0.0000    0.0000 C   0  0  0  0  0  4           0  0  0
    0.0000    0.0000    0.0000 C   0  0  0  0  0  4           0  0  0
    0.0000    0.0000    0.0000 C   0  0  0  0  0  4           0  0  0
  1  2  1  0     0  0
  2  3  2  0     0  0
  3  4  1  0     0  0
  4  5  1  0     0  0
  5  6  1  0     0  0
  6  7  1  0     0  0
  7  8  1  0     0  0
  8  9  2  0     0  0
  9 10  1  0     0  0
 10 11  2  0     0  0
 11 12  1  0     0  0
 12 13  1  0     0  0
 13 14  2  0     0  0
 14 15  1  0     0  0
 15 16  2  0     0  0
 16 17  1  0     0  0
 13 18  1  0     0  0
 17 18  2  0     0  0
 18 19  1  0     0  0
 19 20  2  0     0  0
 20 21  1  0     0  0
 21 22  1  0     0  0
 20 23  1  0     0  0
 23 24  1  0     0  0
 24 25  1  0     0  0
 25 26  1  0     0  0
 26 27  1  0     0  0
 27 28  1  0     0  0
 17 29  1  0     0  0
 23 29  2  0     0  0
  8 30  1  0     0  0
 11 30  1  0     0  0
  6 31  2  0     0  0
  4 32  2  0     0  0
 32 33  1  0     0  0
  2 34  1  0     0  0
 33 34  2  0     0  0
M  END
> <Compound>
4

> <canonical_smiles>
FC1=CC(NC(CC2=CN=C(NC3=NC=NC4=C3C=C(OC)C(OCCOC)=C4)S2)=O)=CC=C1

> <standard_type>
pIC50

> <standard_units>
nM

> <standard_relation>
=

> <actual_activity_value>
8.096910013008056

> <predicted_activity_value>
8.045757490560675

> <Publication_ID>
nan

$$$$
4
  CDPL    08252113263D 1   1.00000     0.00000

 42 45  0     0  0            999 V2000
    0.0000    0.0000    0.0000 O   0  0  0  0  0  2           0  0  0
    0.0000    0.0000    0.0000 C   0  0  0  0  0  4           0  0  0
    0.0000    0.0000    0.0000 C   0  0  0  0  0  4           0  0  0
    0.0000    0.0000    0.0000 N   0  0  0  0  0  3           0  0  0
    0.0000    0.0000    0.0000 C   0  0  0  0  0  4           0  0  0
    0.0000    0.0000    0.0000 C   0  0  0  0  0  4           0  0  0
    0.0000    0.0000    0.0000 N   0  0  0  0  0  3           0  0  0
    0.0000    0.0000    0.0000 C   0  0  0  0  0  4           0  0  0
    0.0000    0.0000    0.0000 N   0  0  0  0  0  3           0  0  0
    0.0000    0.0000    0.0000 C   0  0  0  0  0  4           0  0  0
    0.0000    0.0000    0.0000 N   0  0  0  0  0  3           0  0  0
    0.0000    0.0000    0.0000 C   0  0  0  0  0  4           0  0  0
    0.0000    0.0000    0.0000 N   0  0  0  0  0  3           0  0  0
    0.0000    0.0000    0.0000 C   0  0  0  0  0  4           0  0  0
    0.0000    0.0000    0.0000 C   0  0  0  0  0  4           0  0  0
    0.0000    0.0000    0.0000 C   0  0  0  0  0  4           0  0  0
    0.0000    0.0000    0.0000 C   0  0  0  0  0  4           0  0  0
    0.0000    0.0000    0.0000 O   0  0  0  0  0  2           0  0  0
    0.0000    0.0000    0.0000 C   0  0  0  0  0  4           0  0  0
    0.0000    0.0000    0.0000 C   0  0  0  0  0  4           0  0  0
    0.0000    0.0000    0.0000 O   0  0  0  0  0  2           0  0  0
    0.0000    0.0000    0.0000 C   0  0  0  0  0  4           0  0  0
    0.0000    0.0000    0.0000 C   0  0  0  0  0  4           0  0  0
    0.0000    0.0000    0.0000 C   0  0  0  0  0  4           0  0  0
    0.0000    0.0000    0.0000 N   0  0  0  0  0  3           0  0  0
    0.0000    0.0000    0.0000 C   0  0  0  0  0  4           0  0  0
    0.0000    0.0000    0.0000 C   0  0  0  0  0  4           0  0  0
    0.0000    0.0000    0.0000 C   0  0  0  0  0  4           0  0  0
    0.0000    0.0000    0.0000 C   0  0  0  0  0  4           0  0  0
    0.0000    0.0000    0.0000 C   0  0  0  0  0  4           0  0  0
    0.0000    0.0000    0.0000 C   0  0  0  0  0  4           0  0  0
    0.0000    0.0000    0.0000 O   0  0  0  0  0  2           0  0  0
    0.0000    0.0000    0.0000 C   0  0  0  0  0  4           0  0  0
    0.0000    0.0000    0.0000 N   0  0  0  0  0  3           0  0  0
    0.0000    0.0000    0.0000 C   0  0  0  0  0  4           0  0  0
    0.0000    0.0000    0.0000 C   0  0  0  0  0  4           0  0  0
    0.0000    0.0000    0.0000 F   0  0  0  0  0  1           0  0  0
    0.0000    0.0000    0.0000 C   0  0  0  0  0  4           0  0  0
    0.0000    0.0000    0.0000 F   0  0  0  0  0  1           0  0  0
    0.0000    0.0000    0.0000 C   0  0  0  0  0  4           0  0  0
    0.0000    0.0000    0.0000 C   0  0  0  0  0  4           0  0  0
    0.0000    0.0000    0.0000 C   0  0  0  0  0  4           0  0  0
  1  2  2  0     0  0
  2  3  1  0     0  0
  3  4  1  0     0  0
  4  5  1  0     0  0
  5  6  2  0     0  0
  4  7  1  0     0  0
  6  8  1  0     0  0
  7  8  2  0     0  0
  8  9  1  0     0  0
  9 10  1  0     0  0
 10 11  2  0     0  0
 11 12  1  0     0  0
 12 13  2  0     0  0
 13 14  1  0     0  0
 10 15  1  0     0  0
 14 15  2  0     0  0
 15 16  1  0     0  0
 16 17  2  0     0  0
 17 18  1  0     0  0
 18 19  1  0     0  0
 17 20  1  0     0  0
 20 21  1  0     0  0
 21 22  1  0     0  0
 22 23  1  0     0  0
 23 24  1  0     0  0
 24 25  1  0     0  0
 25 26  1  0     0  0
 26 27  1  0     0  0
 27 28  1  0     0  0
 27 29  1  0     0  0
 25 30  1  0     0  0
 30 31  1  0     0  0
 31 32  1  0     0  0
 14 33  1  0     0  0
 20 33  2  0     0  0
  2 34  1  0     0  0
 34 35  1  0     0  0
 35 36  2  0     0  0
 36 37  1  0     0  0
 36 38  1  0     0  0
 38 39  1  0     0  0
 38 40  2  0     0  0
 40 41  1  0     0  0
 35 42  1  0     0  0
 41 42  2  0     0  0
M  END
> <Compound>
5

> <canonical_smiles>
O=C(CN(C=C1)N=C1NC2=NC=NC3=C2C=C(OC)C(OCCCN(CC(C)C)CCO)=C3)NC4=C(F)C(F)=CC=C4

> <standard_type>
pIC50

> <standard_units>
nM

> <standard_relation>
=

> <actual_activity_value>
8.096910013008056

> <predicted_activity_value>
8.031517051446064

> <Publication_ID>
nan

$$$$
5
  CDPL    08252113263D 1   1.00000     0.00000

 42 46  0     0  0            999 V2000
    0.0000    0.0000    0.0000 O   0  0  0  0  0  2           0  0  0
    0.0000    0.0000    0.0000 C   0  0  0  0  0  4           0  0  0
    0.0000    0.0000    0.0000 C   0  0  0  0  0  4           0  0  0
    0.0000    0.0000    0.0000 C   0  0  0  0  0  4           0  0  0
    0.0000    0.0000    0.0000 C   0  0  0  0  0  4           0  0  0
    0.0000    0.0000    0.0000 C   0  0  0  0  0  4           0  0  0
    0.0000    0.0000    0.0000 N   0  0  0  0  0  3           0  0  0
    0.0000    0.0000    0.0000 C   0  0  0  0  0  4           0  0  0
    0.0000    0.0000    0.0000 N   0  0  0  0  0  3           0  0  0
    0.0000    0.0000    0.0000 C   0  0  0  0  0  4           0  0  0
    0.0000    0.0000    0.0000 N   0  0  0  0  0  3           0  0  0
    0.0000    0.0000    0.0000 C   0  0  0  0  0  4           0  0  0
    0.0000    0.0000    0.0000 C   0  0  0  0  0  4           0  0  0
    0.0000    0.0000    0.0000 C   0  0  0  0  0  4           0  0  0
    0.0000    0.0000    0.0000 C   0  0  0  0  0  4           0  0  0
    0.0000    0.0000    0.0000 O   0  0  0  0  0  2           0  0  0
    0.0000    0.0000    0.0000 C   0  0  0  0  0  4           0  0  0
    0.0000    0.0000    0.0000 C   0  0  0  0  0  4           0  0  0
    0.0000    0.0000    0.0000 O   0  0  0  0  0  2           0  0  0
    0.0000    0.0000    0.0000 C   0  0  0  0  0  4           0  0  0
    0.0000    0.0000    0.0000 C   0  0  0  0  0  4           0  0  0
    0.0000    0.0000    0.0000 C   0  0  0  0  0  4           0  0  0
    0.0000    0.0000    0.0000 N   0  0  0  0  0  3           0  0  0
    0.0000    0.0000    0.0000 C   0  0  0  0  0  4           0  0  0
    0.0000    0.0000    0.0000 C   0  0  0  0  0  4           0  0  0
    0.0000    0.0000    0.0000 C   0  0  0  0  0  4           0  0  0
    0.0000    0.0000    0.0000 C   0  0  0  0  0  4           0  0  0
    0.0000    0.0000    0.0000 O   0  0  0  0  0  2           0  0  0
    0.0000    0.0000    0.0000 C   0  0  0  0  0  4           0  0  0
    0.0000    0.0000    0.0000 C   0  0  0  0  0  4           0  0  0
    0.0000    0.0000    0.0000 C   0  0  0  0  0  4           0  0  0
    0.0000    0.0000    0.0000 N   0  0  0  0  0  3           0  0  0
    0.0000    0.0000    0.0000 N   0  0  0  0  0  3           0  0  0
    0.0000    0.0000    0.0000 N   0  0  0  0  0  3           0  0  0
    0.0000    0.0000    0.0000 C   0  0  0  0  0  4           0  0  0
    0.0000    0.0000    0.0000 C   0  0  0  0  0  4           0  0  0
    0.0000    0.0000    0.0000 C   0  0  0  0  0  4           0  0  0
    0.0000    0.0000    0.0000 C   0  0  0  0  0  4           0  0  0
    0.0000    0.0000    0.0000 C   0  0  0  0  0  4           0  0  0
    0.0000    0.0000    0.0000 O   0  0  0  0  0  2           0  0  0
    0.0000    0.0000    0.0000 C   0  0  0  0  0  4           0  0  0
    0.0000    0.0000    0.0000 C   0  0  0  0  0  4           0  0  0
  1  2  2  0     0  0
  2  3  1  0     0  0
  3  4  1  0     0  0
  4  5  2  0     0  0
  5  6  1  0     0  0
  6  7  1  0     0  0
  7  8  1  0     0  0
  8  9  2  0     0  0
  9 10  1  0     0  0
 10 11  2  0     0  0
 11 12  1  0     0  0
  8 13  1  0     0  0
 12 13  2  0     0  0
 13 14  1  0     0  0
 14 15  2  0     0  0
 15 16  1  0     0  0
 16 17  1  0     0  0
 15 18  1  0     0  0
 18 19  1  0     0  0
 19 20  1  0     0  0
 20 21  1  0     0  0
 21 22  1  0     0  0
 22 23  1  0     0  0
 23 24  1  0     0  0
 24 25  1  0     0  0
 25 26  1  0     0  0
 26 27  1  0     0  0
 27 28  1  0     0  0
 26 29  1  0     0  0
 23 30  1  0     0  0
 29 30  1  0     0  0
 12 31  1  0     0  0
 18 31  2  0     0  0
  6 32  2  0     0  0
  4 33  1  0     0  0
 32 33  1  0     0  0
  2 34  1  0     0  0
 34 35  1  0     0  0
 35 36  2  0     0  0
 36 37  1  0     0  0
 37 38  2  0     0  0
 38 39  1  0     0  0
 39 40  1  0     0  0
 40 41  1  0     0  0
 35 42  1  0     0  0
 39 42  2  0     0  0
M  END
> <Compound>
6

> <canonical_smiles>
O=C(CC1=CC(NC2=NC=NC3=C2C=C(OC)C(OCCCN4CCC(CO)CC4)=C3)=NN1)NC5=CC=CC(OC)=C5

> <standard_type>
pIC50

> <standard_units>
nM

> <standard_relation>
=

> <actual_activity_value>
8.045757490560675

> <predicted_activity_value>
8.065501548756432

> <Publication_ID>
nan

$$$$
6
  CDPL    08252113263D 1   1.00000     0.00000

 43 47  0     0  0            999 V2000
    0.0000    0.0000    0.0000 F   0  0  0  0  0  1           0  0  0
    0.0000    0.0000    0.0000 C   0  0  0  0  0  4           0  0  0
    0.0000    0.0000    0.0000 C   0  0  0  0  0  4           0  0  0
    0.0000    0.0000    0.0000 C   0  0  0  0  0  4           0  0  0
    0.0000    0.0000    0.0000 C   0  0  0  0  0  4           0  0  0
    0.0000    0.0000    0.0000 C   0  0  0  0  0  4           0  0  0
    0.0000    0.0000    0.0000 N   0  0  0  0  0  3           0  0  0
    0.0000    0.0000    0.0000 C   0  0  0  0  0  4           0  0  0
    0.0000    0.0000    0.0000 C   0  0  0  0  0  4           0  0  0
    0.0000    0.0000    0.0000 C   0  0  0  0  0  4           0  0  0
    0.0000    0.0000    0.0000 C   0  0  0  0  0  4           0  0  0
    0.0000    0.0000    0.0000 N   0  0  0  0  0  3           0  0  0
    0.0000    0.0000    0.0000 C   0  0  0  0  0  4           0  0  0
    0.0000    0.0000    0.0000 N   0  0  0  0  0  3           0  0  0
    0.0000    0.0000    0.0000 C   0  0  0  0  0  4           0  0  0
    0.0000    0.0000    0.0000 N   0  0  0  0  0  3           0  0  0
    0.0000    0.0000    0.0000 C   0  0  0  0  0  4           0  0  0
    0.0000    0.0000    0.0000 N   0  0  0  0  0  3           0  0  0
    0.0000    0.0000    0.0000 C   0  0  0  0  0  4           0  0  0
    0.0000    0.0000    0.0000 C   0  0  0  0  0  4           0  0  0
    0.0000    0.0000    0.0000 C   0  0  0  0  0  4           0  0  0
    0.0000    0.0000    0.0000 C   0  0  0  0  0  4           0  0  0
    0.0000    0.0000    0.0000 C   0  0  0  0  0  4           0  0  0
    0.0000    0.0000    0.0000 C   0  0  0  0  0  4           0  0  0
    0.0000    0.0000    0.0000 C   0  0  0  0  0  4           0  0  0
    0.0000    0.0000    0.0000 N   0  0  0  0  0  3           0  0  0
    0.0000    0.0000    0.0000 C   0  0  1  0  0  4           0  0  0
    0.0000    0.0000    0.0000 O   0  0  0  0  0  2           0  0  0
    0.0000    0.0000    0.0000 P   0  0  0  0  0  5           0  0  0
    0.0000    0.0000    0.0000 O   0  0  0  0  0  2           0  0  0
    0.0000    0.0000    0.0000 O   0  0  0  0  0  2           0  0  0
    0.0000    0.0000    0.0000 O   0  0  0  0  0  2           0  0  0
    0.0000    0.0000    0.0000 C   0  0  0  0  0  4           0  0  0
    0.0000    0.0000    0.0000 C   0  0  0  0  0  4           0  0  0
    0.0000    0.0000    0.0000 C   0  0  0  0  0  4           0  0  0
    0.0000    0.0000    0.0000 C   0  0  0  0  0  4           0  0  0
    0.0000    0.0000    0.0000 O   0  0  0  0  0  2           0  0  0
    0.0000    0.0000    0.0000 C   0  0  0  0  0  4           0  0  0
    0.0000    0.0000    0.0000 C   0  0  0  0  0  4           0  0  0
    0.0000    0.0000    0.0000 C   0  0  0  0  0  4           0  0  0
    0.0000    0.0000    0.0000 S   0  0  0  0  0  2           0  0  0
    0.0000    0.0000    0.0000 O   0  0  0  0  0  2           0  0  0
    0.0000    0.0000    0.0000 C   0  0  0  0  0  4           0  0  0
  1  2  1  0     0  0
  2  3  2  0     0  0
  3  4  1  0     0  0
  4  5  2  0     0  0
  5  6  1  0     0  0
  6  7  1  0     0  0
  7  8  1  0     0  0
  8  9  1  0     0  0
  9 10  1  0     0  0
 10 11  2  0     0  0
 11 12  1  0     0  0
 12 13  2  0     0  0
 13 14  1  0     0  0
 14 15  1  0     0  0
 15 16  2  0     0  0
 16 17  1  0     0  0
 17 18  2  0     0  0
 18 19  1  0     0  0
 19 20  2  0     0  0
 20 21  1  0     0  0
 21 22  1  0     0  0
 22 23  1  0     0  0
 23 24  1  0     0  0
 24 25  1  0     0  0
 25 26  1  0     0  0
 26 27  1  0     0  0
 27 28  1  0     0  0
 28 29  1  0     0  0
 29 30  1  0     0  0
 29 31  1  0     0  0
 29 32  2  0     0  0
 27 33  1  0     0  0
 33 34  1  0     0  0
 26 35  1  0     0  0
 34 35  1  0     0  0
 21 36  2  0     0  0
 36 37  1  0     0  0
 37 38  1  0     0  0
 36 39  1  0     0  0
 15 40  1  0     0  0
 19 40  1  0     0  0
 39 40  2  0     0  0
 10 41  1  0     0  0
 13 41  1  0     0  0
  8 42  2  0     0  0
  2 43  1  0     0  0
  6 43  2  0     0  0
M  END
> <Compound>
7

> <canonical_smiles>
FC1=CC=CC(NC(CC2=CN=C(NC3=NC=NC4=CC(CCCCN5[C@@H](OP(O)(O)=O)CCC5)=C(OC)C=C34)S2)=O)=C1

> <standard_type>
pIC50

> <standard_units>
nM

> <standard_relation>
=

> <actual_activity_value>
8.045757490560675

> <predicted_activity_value>
8.09151498112135

> <Publication_ID>
nan

$$$$
7
  CDPL    08252113263D 1   1.00000     0.00000

 40 43  0     0  0            999 V2000
    0.0000    0.0000    0.0000 F   0  0  0  0  0  1           0  0  0
    0.0000    0.0000    0.0000 C   0  0  0  0  0  4           0  0  0
    0.0000    0.0000    0.0000 C   0  0  0  0  0  4           0  0  0
    0.0000    0.0000    0.0000 N   0  0  0  0  0  3           0  0  0
    0.0000    0.0000    0.0000 C   0  0  0  0  0  4           0  0  0
    0.0000    0.0000    0.0000 C   0  0  0  0  0  4           0  0  0
    0.0000    0.0000    0.0000 N   0  0  0  0  0  3           0  0  0
    0.0000    0.0000    0.0000 C   0  0  0  0  0  4           0  0  0
    0.0000    0.0000    0.0000 C   0  0  0  0  0  4           0  0  0
    0.0000    0.0000    0.0000 C   0  0  0  0  0  4           0  0  0
    0.0000    0.0000    0.0000 N   0  0  0  0  0  3           0  0  0
    0.0000    0.0000    0.0000 C   0  0  0  0  0  4           0  0  0
    0.0000    0.0000    0.0000 N   0  0  0  0  0  3           0  0  0
    0.0000    0.0000    0.0000 C   0  0  0  0  0  4           0  0  0
    0.0000    0.0000    0.0000 N   0  0  0  0  0  3           0  0  0
    0.0000    0.0000    0.0000 C   0  0  0  0  0  4           0  0  0
    0.0000    0.0000    0.0000 C   0  0  0  0  0  4           0  0  0
    0.0000    0.0000    0.0000 C   0  0  0  0  0  4           0  0  0
    0.0000    0.0000    0.0000 C   0  0  0  0  0  4           0  0  0
    0.0000    0.0000    0.0000 C   0  0  0  0  0  4           0  0  0
    0.0000    0.0000    0.0000 O   0  0  0  0  0  2           0  0  0
    0.0000    0.0000    0.0000 C   0  0  0  0  0  4           0  0  0
    0.0000    0.0000    0.0000 C   0  0  0  0  0  4           0  0  0
    0.0000    0.0000    0.0000 C   0  0  0  0  0  4           0  0  0
    0.0000    0.0000    0.0000 N   0  0  0  0  0  3           0  0  0
    0.0000    0.0000    0.0000 C   0  0  0  0  0  4           0  0  0
    0.0000    0.0000    0.0000 C   0  0  0  0  0  4           0  0  0
    0.0000    0.0000    0.0000 O   0  0  0  0  0  2           0  0  0
    0.0000    0.0000    0.0000 C   0  0  0  0  0  4           0  0  0
    0.0000    0.0000    0.0000 C   0  0  0  0  0  4           0  0  0
    0.0000    0.0000    0.0000 C   0  0  0  0  0  4           0  0  0
    0.0000    0.0000    0.0000 C   0  0  0  0  0  4           0  0  0
    0.0000    0.0000    0.0000 C   0  0  0  0  0  4           0  0  0
    0.0000    0.0000    0.0000 N   0  0  0  0  0  3           0  0  0
    0.0000    0.0000    0.0000 O   0  0  0  0  0  2           0  0  0
    0.0000    0.0000    0.0000 C   0  0  0  0  0  4           0  0  0
    0.0000    0.0000    0.0000 C   0  0  0  0  0  4           0  0  0
    0.0000    0.0000    0.0000 C   0  0  0  0  0  4           0  0  0
    0.0000    0.0000    0.0000 C   0  0  0  0  0  4           0  0  0
    0.0000    0.0000    0.0000 F   0  0  0  0  0  1           0  0  0
  1  2  1  0     0  0
  2  3  2  0     0  0
  3  4  1  0     0  0
  4  5  1  0     0  0
  5  6  1  0     0  0
  6  7  1  0     0  0
  7  8  1  0     0  0
  8  9  2  0     0  0
  9 10  1  0     0  0
 10 11  1  0     0  0
 11 12  1  0     0  0
 12 13  2  0     0  0
 13 14  1  0     0  0
 14 15  2  0     0  0
 15 16  1  0     0  0
 12 17  1  0     0  0
 16 17  2  0     0  0
 17 18  1  0     0  0
 18 19  2  0     0  0
 19 20  1  0     0  0
 20 21  1  0     0  0
 21 22  1  0     0  0
 22 23  1  0     0  0
 23 24  1  0     0  0
 24 25  1  0     0  0
 25 26  1  0     0  0
 26 27  1  0     0  0
 27 28  1  0     0  0
 25 29  1  0     0  0
 29 30  1  0     0  0
 30 31  1  0     0  0
 30 32  1  0     0  0
 16 33  1  0     0  0
 20 33  2  0     0  0
  7 34  1  0     0  0
 10 34  2  0     0  0
  5 35  2  0     0  0
  3 36  1  0     0  0
 36 37  2  0     0  0
 37 38  1  0     0  0
  2 39  1  0     0  0
 38 39  2  0     0  0
 39 40  1  0     0  0
M  END
> <Compound>
8

> <canonical_smiles>
FC1=C(NC(CN2C=CC(NC3=NC=NC4=C3C=CC(OCCCN(CCO)CC(C)C)=C4)=N2)=O)C=CC=C1F

> <standard_type>
pIC50

> <standard_units>
nM

> <standard_relation>
=

> <actual_activity_value>
8.045757490560675

> <predicted_activity_value>
7.853871964321762

> <Publication_ID>
nan

$$$$
8
  CDPL    08252113263D 1   1.00000     0.00000

 44 48  0     0  0            999 V2000
    0.0000    0.0000    0.0000 O   0  0  0  0  0  2           0  0  0
    0.0000    0.0000    0.0000 C   0  0  0  0  0  4           0  0  0
    0.0000    0.0000    0.0000 C   0  0  0  0  0  4           0  0  0
    0.0000    0.0000    0.0000 C   0  0  0  0  0  4           0  0  0
    0.0000    0.0000    0.0000 C   0  0  0  0  0  4           0  0  0
    0.0000    0.0000    0.0000 C   0  0  0  0  0  4           0  0  0
    0.0000    0.0000    0.0000 N   0  0  0  0  0  3           0  0  0
    0.0000    0.0000    0.0000 C   0  0  0  0  0  4           0  0  0
    0.0000    0.0000    0.0000 N   0  0  0  0  0  3           0  0  0
    0.0000    0.0000    0.0000 C   0  0  0  0  0  4           0  0  0
    0.0000    0.0000    0.0000 N   0  0  0  0  0  3           0  0  0
    0.0000    0.0000    0.0000 C   0  0  0  0  0  4           0  0  0
    0.0000    0.0000    0.0000 C   0  0  0  0  0  4           0  0  0
    0.0000    0.0000    0.0000 C   0  0  0  0  0  4           0  0  0
    0.0000    0.0000    0.0000 O   0  0  0  0  0  2           0  0  0
    0.0000    0.0000    0.0000 C   0  0  0  0  0  4           0  0  0
    0.0000    0.0000    0.0000 C   0  0  0  0  0  4           0  0  0
    0.0000    0.0000    0.0000 C   0  0  0  0  0  4           0  0  0
    0.0000    0.0000    0.0000 N   0  0  0  0  0  3           0  0  0
    0.0000    0.0000    0.0000 C   0  0  0  0  0  4           0  0  0
    0.0000    0.0000    0.0000 C   0  0  0  0  0  4           0  0  0
    0.0000    0.0000    0.0000 C   0  0  0  0  0  4           0  0  0
    0.0000    0.0000    0.0000 C   0  0  0  0  0  4           0  0  0
    0.0000    0.0000    0.0000 O   0  0  0  0  0  2           0  0  0
    0.0000    0.0000    0.0000 C   0  0  0  0  0  4           0  0  0
    0.0000    0.0000    0.0000 C   0  0  0  0  0  4           0  0  0
    0.0000    0.0000    0.0000 C   0  0  0  0  0  4           0  0  0
    0.0000    0.0000    0.0000 O   0  0  0  0  0  2           0  0  0
    0.0000    0.0000    0.0000 C   0  0  0  0  0  4           0  0  0
    0.0000    0.0000    0.0000 C   0  0  0  0  0  4           0  0  0
    0.0000    0.0000    0.0000 C   0  0  0  0  0  4           0  0  0
    0.0000    0.0000    0.0000 N   0  0  0  0  0  3           0  0  0
    0.0000    0.0000    0.0000 N   0  0  0  0  0  3           0  0  0
    0.0000    0.0000    0.0000 N   0  0  0  0  0  3           0  0  0
    0.0000    0.0000    0.0000 C   0  0  0  0  0  4           0  0  0
    0.0000    0.0000    0.0000 C   0  0  0  0  0  4           0  0  0
    0.0000    0.0000    0.0000 C   0  0  0  0  0  4           0  0  0
    0.0000    0.0000    0.0000 C   0  0  0  0  0  4           0  0  0
    0.0000    0.0000    0.0000 C   0  0  0  0  0  4           0  0  0
    0.0000    0.0000    0.0000 C   0  0  0  0  0  4           0  0  0
    0.0000    0.0000    0.0000 F   0  0  0  0  0  1           0  0  0
    0.0000    0.0000    0.0000 F   0  0  0  0  0  1           0  0  0
    0.0000    0.0000    0.0000 F   0  0  0  0  0  1           0  0  0
    0.0000    0.0000    0.0000 C   0  0  0  0  0  4           0  0  0
  1  2  2  0     0  0
  2  3  1  0     0  0
  3  4  1  0     0  0
  4  5  2  0     0  0
  5  6  1  0     0  0
  6  7  1  0     0  0
  7  8  1  0     0  0
  8  9  2  0     0  0
  9 10  1  0     0  0
 10 11  2  0     0  0
 11 12  1  0     0  0
 12 13  2  0     0  0
 13 14  1  0     0  0
 14 15  1  0     0  0
 15 16  1  0     0  0
 16 17  1  0     0  0
 17 18  1  0     0  0
 18 19  1  0     0  0
 19 20  1  0     0  0
 20 21  1  0     0  0
 21 22  1  0     0  0
 22 23  1  0     0  0
 23 24  1  0     0  0
 22 25  1  0     0  0
 19 26  1  0     0  0
 25 26  1  0     0  0
 14 27  2  0     0  0
 27 28  1  0     0  0
 28 29  1  0     0  0
 27 30  1  0     0  0
  8 31  1  0     0  0
 12 31  1  0     0  0
 30 31  2  0     0  0
  6 32  2  0     0  0
  4 33  1  0     0  0
 32 33  1  0     0  0
  2 34  1  0     0  0
 34 35  1  0     0  0
 35 36  2  0     0  0
 36 37  1  0     0  0
 37 38  2  0     0  0
 38 39  1  0     0  0
 39 40  1  0     0  0
 40 41  1  0     0  0
 40 42  1  0     0  0
 40 43  1  0     0  0
 35 44  1  0     0  0
 39 44  2  0     0  0
M  END
> <Compound>
9

> <canonical_smiles>
O=C(CC1=CC(NC2=NC=NC3=CC(OCCCN4CCC(CO)CC4)=C(OC)C=C23)=NN1)NC5=CC=CC(C(F)(F)F)=C5

> <standard_type>
pIC50

> <standard_units>
nM

> <standard_relation>
=

> <actual_activity_value>
7.886056647693163

> <predicted_activity_value>
7.886056647693163

> <Publication_ID>
nan

$$$$
9
  CDPL    08252113263D 1   1.00000     0.00000

 33 37  0     0  0            999 V2000
    0.0000    0.0000    0.0000 C   0  0  0  0  0  4           0  0  0
    0.0000    0.0000    0.0000 C   0  0  0  0  0  4           0  0  0
    0.0000    0.0000    0.0000 N   0  0  0  0  0  3           0  0  0
    0.0000    0.0000    0.0000 N   0  0  0  0  0  3           0  0  0
    0.0000    0.0000    0.0000 C   0  0  0  0  0  4           0  0  0
    0.0000    0.0000    0.0000 N   0  0  0  0  0  3           0  0  0
    0.0000    0.0000    0.0000 C   0  0  0  0  0  4           0  0  0
    0.0000    0.0000    0.0000 N   0  0  0  0  0  3           0  0  0
    0.0000    0.0000    0.0000 C   0  0  0  0  0  4           0  0  0
    0.0000    0.0000    0.0000 S   0  0  0  0  0  2           0  0  0
    0.0000    0.0000    0.0000 C   0  0  0  0  0  4           0  0  0
    0.0000    0.0000    0.0000 C   0  0  0  0  0  4           0  0  0
    0.0000    0.0000    0.0000 C   0  0  0  0  0  4           0  0  0
    0.0000    0.0000    0.0000 C   0  0  0  0  0  4           0  0  0
    0.0000    0.0000    0.0000 N   0  0  0  0  0  3           0  0  0
    0.0000    0.0000    0.0000 C   0  0  0  0  0  4           0  0  0
    0.0000    0.0000    0.0000 C   0  0  0  0  0  4           0  0  0
    0.0000    0.0000    0.0000 C   0  0  0  0  0  4           0  0  0
    0.0000    0.0000    0.0000 C   0  0  0  0  0  4           0  0  0
    0.0000    0.0000    0.0000 O   0  0  0  0  0  2           0  0  0
    0.0000    0.0000    0.0000 C   0  0  0  0  0  4           0  0  0
    0.0000    0.0000    0.0000 C   0  0  0  0  0  4           0  0  0
    0.0000    0.0000    0.0000 N   0  0  0  0  0  3           0  0  0
    0.0000    0.0000    0.0000 C   0  0  0  0  0  4           0  0  0
    0.0000    0.0000    0.0000 N   0  0  0  0  0  3           0  0  0
    0.0000    0.0000    0.0000 C   0  0  0  0  0  4           0  0  0
    0.0000    0.0000    0.0000 C   0  0  0  0  0  4           0  0  0
    0.0000    0.0000    0.0000 N   0  0  0  0  0  3           0  0  0
    0.0000    0.0000    0.0000 C   0  0  0  0  0  4           0  0  0
    0.0000    0.0000    0.0000 C   0  0  0  0  0  4           0  0  0
    0.0000    0.0000    0.0000 C   0  0  0  0  0  4           0  0  0
    0.0000    0.0000    0.0000 C   0  0  0  0  0  4           0  0  0
    0.0000    0.0000    0.0000 C   0  0  0  0  0  4           0  0  0
  1  2  1  0     0  0
  2  3  2  0     0  0
  3  4  1  0     0  0
  4  5  1  0     0  0
  5  6  1  0     0  0
  6  7  1  0     0  0
  7  8  2  0     0  0
  8  9  1  0     0  0
  9 10  1  0     0  0
 10 11  1  0     0  0
 11 12  2  0     0  0
 12 13  1  0     0  0
 13 14  2  0     0  0
 14 15  1  0     0  0
 15 16  1  0     0  0
 16 17  1  0     0  0
 17 18  1  0     0  0
 17 19  1  0     0  0
 18 19  1  0     0  0
 16 20  2  0     0  0
 14 21  1  0     0  0
 11 22  1  0     0  0
 21 22  2  0     0  0
  9 23  2  0     0  0
 23 24  1  0     0  0
 24 25  1  0     0  0
 25 26  1  0     0  0
 26 27  1  0     0  0
 27 28  1  0     0  0
 28 29  1  0     0  0
 28 30  1  0     0  0
 25 31  1  0     0  0
 30 31  1  0     0  0
  7 32  1  0     0  0
 24 32  2  0     0  0
  2 33  1  0     0  0
  5 33  2  0     0  0
M  END
> <Compound>
10

> <canonical_smiles>
CC1=NNC(NC2=NC(SC3=CC=C(NC(C4CC4)=O)C=C3)=NC(N5CCN(C)CC5)=C2)=C1

> <standard_type>
pIC50

> <standard_units>
nM

> <standard_relation>
=

> <actual_activity_value>
7.7447274948966935

> <predicted_activity_value>
7.886056647693163

> <Publication_ID>
nan

$$$$
10
  CDPL    08252113263D 1   1.00000     0.00000

 30 33  0     0  0            999 V2000
    0.0000    0.0000    0.0000 O   0  0  0  0  0  2           0  0  0
    0.0000    0.0000    0.0000 C   0  0  0  0  0  4           0  0  0
    0.0000    0.0000    0.0000 N   0  0  0  0  0  3           0  0  0
    0.0000    0.0000    0.0000 C   0  0  0  0  0  4           0  0  0
    0.0000    0.0000    0.0000 N   0  0  0  0  0  3           0  0  0
    0.0000    0.0000    0.0000 C   0  0  0  0  0  4           0  0  0
    0.0000    0.0000    0.0000 C   0  0  0  0  0  4           0  0  0
    0.0000    0.0000    0.0000 N   0  0  0  0  0  3           0  0  0
    0.0000    0.0000    0.0000 C   0  0  0  0  0  4           0  0  0
    0.0000    0.0000    0.0000 N   0  0  0  0  0  3           0  0  0
    0.0000    0.0000    0.0000 C   0  0  0  0  0  4           0  0  0
    0.0000    0.0000    0.0000 N   0  0  0  0  0  3           0  0  0
    0.0000    0.0000    0.0000 C   0  0  0  0  0  4           0  0  0
    0.0000    0.0000    0.0000 C   0  0  0  0  0  4           0  0  0
    0.0000    0.0000    0.0000 C   0  0  0  0  0  4           0  0  0
    0.0000    0.0000    0.0000 C   0  0  0  0  0  4           0  0  0
    0.0000    0.0000    0.0000 O   0  0  0  0  0  2           0  0  0
    0.0000    0.0000    0.0000 C   0  0  0  0  0  4           0  0  0
    0.0000    0.0000    0.0000 C   0  0  0  0  0  4           0  0  0
    0.0000    0.0000    0.0000 O   0  0  0  0  0  2           0  0  0
    0.0000    0.0000    0.0000 C   0  0  0  0  0  4           0  0  0
    0.0000    0.0000    0.0000 C   0  0  0  0  0  4           0  0  0
    0.0000    0.0000    0.0000 C   0  0  0  0  0  4           0  0  0
    0.0000    0.0000    0.0000 N   0  0  0  0  0  3           0  0  0
    0.0000    0.0000    0.0000 C   0  0  0  0  0  4           0  0  0
    0.0000    0.0000    0.0000 C   0  0  0  0  0  4           0  0  0
    0.0000    0.0000    0.0000 C   0  0  0  0  0  4           0  0  0
    0.0000    0.0000    0.0000 C   0  0  0  0  0  4           0  0  0
    0.0000    0.0000    0.0000 C   0  0  0  0  0  4           0  0  0
    0.0000    0.0000    0.0000 C   0  0  0  0  0  4           0  0  0
  1  2  2  0     0  0
  2  3  1  0     0  0
  3  4  1  0     0  0
  4  5  2  0     0  0
  5  6  1  0     0  0
  6  7  2  0     0  0
  7  8  1  0     0  0
  8  9  1  0     0  0
  9 10  2  0     0  0
 10 11  1  0     0  0
 11 12  2  0     0  0
 12 13  1  0     0  0
  9 14  1  0     0  0
 13 14  2  0     0  0
 14 15  1  0     0  0
 15 16  2  0     0  0
 16 17  1  0     0  0
 17 18  1  0     0  0
 16 19  1  0     0  0
 19 20  1  0     0  0
 20 21  1  0     0  0
 13 22  1  0     0  0
 19 22  2  0     0  0
  7 23  1  0     0  0
  4 24  1  0     0  0
 23 24  2  0     0  0
  2 25  1  0     0  0
 25 26  2  0     0  0
 26 27  1  0     0  0
 27 28  2  0     0  0
 28 29  1  0     0  0
 25 30  1  0     0  0
 29 30  2  0     0  0
M  END
> <Compound>
11

> <canonical_smiles>
O=C(NC1=NC=C(NC2=NC=NC3=C2C=C(OC)C(OC)=C3)C=N1)C4=CC=CC=C4

> <standard_type>
pIC50

> <standard_units>
nM

> <standard_relation>
=

> <actual_activity_value>
7.6020599913279625

> <predicted_activity_value>
7.721246399047171

> <Publication_ID>
nan

$$$$
11
  CDPL    08252113263D 1   1.00000     0.00000

 42 46  0     0  0            999 V2000
    0.0000    0.0000    0.0000 O   0  0  0  0  0  2           0  0  0
    0.0000    0.0000    0.0000 C   0  0  0  0  0  4           0  0  0
    0.0000    0.0000    0.0000 C   0  0  0  0  0  4           0  0  0
    0.0000    0.0000    0.0000 C   0  0  0  0  0  4           0  0  0
    0.0000    0.0000    0.0000 C   0  0  0  0  0  4           0  0  0
    0.0000    0.0000    0.0000 N   0  0  0  0  0  3           0  0  0
    0.0000    0.0000    0.0000 C   0  0  0  0  0  4           0  0  0
    0.0000    0.0000    0.0000 C   0  0  0  0  0  4           0  0  0
    0.0000    0.0000    0.0000 C   0  0  0  0  0  4           0  0  0
    0.0000    0.0000    0.0000 O   0  0  0  0  0  2           0  0  0
    0.0000    0.0000    0.0000 C   0  0  0  0  0  4           0  0  0
    0.0000    0.0000    0.0000 C   0  0  0  0  0  4           0  0  0
    0.0000    0.0000    0.0000 C   0  0  0  0  0  4           0  0  0
    0.0000    0.0000    0.0000 N   0  0  0  0  0  3           0  0  0
    0.0000    0.0000    0.0000 C   0  0  0  0  0  4           0  0  0
    0.0000    0.0000    0.0000 N   0  0  0  0  0  3           0  0  0
    0.0000    0.0000    0.0000 C   0  0  0  0  0  4           0  0  0
    0.0000    0.0000    0.0000 N   0  0  0  0  0  3           0  0  0
    0.0000    0.0000    0.0000 C   0  0  0  0  0  4           0  0  0
    0.0000    0.0000    0.0000 N   0  0  0  0  0  3           0  0  0
    0.0000    0.0000    0.0000 C   0  0  0  0  0  4           0  0  0
    0.0000    0.0000    0.0000 C   0  0  0  0  0  4           0  0  0
    0.0000    0.0000    0.0000 C   0  0  0  0  0  4           0  0  0
    0.0000    0.0000    0.0000 N   0  0  0  0  0  3           0  0  0
    0.0000    0.0000    0.0000 S   0  0  0  0  0  6           0  0  0
    0.0000    0.0000    0.0000 O   0  0  0  0  0  2           0  0  0
    0.0000    0.0000    0.0000 C   0  0  0  0  0  4           0  0  0
    0.0000    0.0000    0.0000 C   0  0  0  0  0  4           0  0  0
    0.0000    0.0000    0.0000 C   0  0  0  0  0  4           0  0  0
    0.0000    0.0000    0.0000 C   0  0  0  0  0  4           0  0  0
    0.0000    0.0000    0.0000 C   0  0  0  0  0  4           0  0  0
    0.0000    0.0000    0.0000 F   0  0  0  0  0  1           0  0  0
    0.0000    0.0000    0.0000 C   0  0  0  0  0  4           0  0  0
    0.0000    0.0000    0.0000 O   0  0  0  0  0  2           0  0  0
    0.0000    0.0000    0.0000 S   0  0  0  0  0  2           0  0  0
    0.0000    0.0000    0.0000 C   0  0  0  0  0  4           0  0  0
    0.0000    0.0000    0.0000 C   0  0  0  0  0  4           0  0  0
    0.0000    0.0000    0.0000 C   0  0  0  0  0  4           0  0  0
    0.0000    0.0000    0.0000 O   0  0  0  0  0  2           0  0  0
    0.0000    0.0000    0.0000 C   0  0  0  0  0  4           0  0  0
    0.0000    0.0000    0.0000 C   0  0  0  0  0  4           0  0  0
    0.0000    0.0000    0.0000 C   0  0  0  0  0  4           0  0  0
  1  2  1  0     0  0
  2  3  1  0     0  0
  3  4  1  0     0  0
  4  5  1  0     0  0
  5  6  1  0     0  0
  6  7  1  0     0  0
  7  8  1  0     0  0
  8  9  1  0     0  0
  9 10  1  0     0  0
 10 11  1  0     0  0
 11 12  2  0     0  0
 12 13  1  0     0  0
 13 14  1  0     0  0
 14 15  2  0     0  0
 15 16  1  0     0  0
 16 17  2  0     0  0
 17 18  1  0     0  0
 18 19  1  0     0  0
 19 20  2  0     0  0
 20 21  1  0     0  0
 21 22  2  0     0  0
 22 23  1  0     0  0
 23 24  1  0     0  0
 24 25  1  0     0  0
 25 26  2  0     0  0
 25 27  1  0     0  0
 27 28  2  0     0  0
 28 29  1  0     0  0
 29 30  2  0     0  0
 30 31  1  0     0  0
 31 32  1  0     0  0
 27 33  1  0     0  0
 31 33  2  0     0  0
 25 34  2  0     0  0
 19 35  1  0     0  0
 22 35  1  0     0  0
 17 36  1  0     0  0
 13 36  2  0     0  0
 36 37  1  0     0  0
 11 38  1  0     0  0
 37 38  2  0     0  0
 38 39  1  0     0  0
 39 40  1  0     0  0
  6 41  1  0     0  0
  3 42  1  0     0  0
 41 42  1  0     0  0
M  END
> <Compound>
12

> <canonical_smiles>
OCC1CCN(CCCOC2=CC(N=CN=C3NC4=NC=C(CNS(=O)(C5=CC=CC(F)=C5)=O)S4)=C3C=C2OC)CC1

> <standard_type>
pIC50

> <standard_units>
nM

> <standard_relation>
=

> <actual_activity_value>
7.552841968657781

> <predicted_activity_value>
7.795880017344075

> <Publication_ID>
nan

$$$$
12
  CDPL    08252113263D 1   1.00000     0.00000

 37 41  0     0  0            999 V2000
    0.0000    0.0000    0.0000 O   0  0  0  0  0  2           0  0  0
    0.0000    0.0000    0.0000 C   0  0  0  0  0  4           0  0  0
    0.0000    0.0000    0.0000 C   0  0  0  0  0  4           0  0  0
    0.0000    0.0000    0.0000 C   0  0  0  0  0  4           0  0  0
    0.0000    0.0000    0.0000 N   0  0  0  0  0  3           0  0  0
    0.0000    0.0000    0.0000 C   0  0  0  0  0  4           0  0  0
    0.0000    0.0000    0.0000 N   0  0  0  0  0  3           0  0  0
    0.0000    0.0000    0.0000 C   0  0  0  0  0  4           0  0  0
    0.0000    0.0000    0.0000 N   0  0  0  0  0  3           0  0  0
    0.0000    0.0000    0.0000 C   0  0  0  0  0  4           0  0  0
    0.0000    0.0000    0.0000 N   0  0  0  0  0  3           0  0  0
    0.0000    0.0000    0.0000 C   0  0  0  0  0  4           0  0  0
    0.0000    0.0000    0.0000 C   0  0  0  0  0  4           0  0  0
    0.0000    0.0000    0.0000 C   0  0  0  0  0  4           0  0  0
    0.0000    0.0000    0.0000 C   0  0  0  0  0  4           0  0  0
    0.0000    0.0000    0.0000 O   0  0  0  0  0  2           0  0  0
    0.0000    0.0000    0.0000 C   0  0  0  0  0  4           0  0  0
    0.0000    0.0000    0.0000 C   0  0  0  0  0  4           0  0  0
    0.0000    0.0000    0.0000 O   0  0  0  0  0  2           0  0  0
    0.0000    0.0000    0.0000 C   0  0  0  0  0  4           0  0  0
    0.0000    0.0000    0.0000 C   0  0  0  0  0  4           0  0  0
    0.0000    0.0000    0.0000 C   0  0  0  0  0  4           0  0  0
    0.0000    0.0000    0.0000 N   0  0  0  0  0  3           0  0  0
    0.0000    0.0000    0.0000 C   0  0  0  0  0  4           0  0  0
    0.0000    0.0000    0.0000 C   0  0  0  0  0  4           0  0  0
    0.0000    0.0000    0.0000 O   0  0  0  0  0  2           0  0  0
    0.0000    0.0000    0.0000 C   0  0  0  0  0  4           0  0  0
    0.0000    0.0000    0.0000 C   0  0  0  0  0  4           0  0  0
    0.0000    0.0000    0.0000 C   0  0  0  0  0  4           0  0  0
    0.0000    0.0000    0.0000 S   0  0  0  0  0  2           0  0  0
    0.0000    0.0000    0.0000 N   0  0  0  0  0  3           0  0  0
    0.0000    0.0000    0.0000 C   0  0  0  0  0  4           0  0  0
    0.0000    0.0000    0.0000 C   0  0  0  0  0  4           0  0  0
    0.0000    0.0000    0.0000 C   0  0  0  0  0  4           0  0  0
    0.0000    0.0000    0.0000 C   0  0  0  0  0  4           0  0  0
    0.0000    0.0000    0.0000 C   0  0  0  0  0  4           0  0  0
    0.0000    0.0000    0.0000 C   0  0  0  0  0  4           0  0  0
  1  2  2  0     0  0
  2  3  1  0     0  0
  3  4  2  0     0  0
  4  5  1  0     0  0
  5  6  2  0     0  0
  6  7  1  0     0  0
  7  8  1  0     0  0
  8  9  2  0     0  0
  9 10  1  0     0  0
 10 11  2  0     0  0
 11 12  1  0     0  0
  8 13  1  0     0  0
 12 13  2  0     0  0
 13 14  1  0     0  0
 14 15  2  0     0  0
 15 16  1  0     0  0
 16 17  1  0     0  0
 15 18  1  0     0  0
 18 19  1  0     0  0
 19 20  1  0     0  0
 20 21  1  0     0  0
 21 22  1  0     0  0
 22 23  1  0     0  0
 23 24  1  0     0  0
 24 25  1  0     0  0
 25 26  1  0     0  0
 26 27  1  0     0  0
 23 28  1  0     0  0
 27 28  1  0     0  0
 12 29  1  0     0  0
 18 29  2  0     0  0
  3 30  1  0     0  0
  6 30  1  0     0  0
  2 31  1  0     0  0
 31 32  1  0     0  0
 32 33  2  0     0  0
 33 34  1  0     0  0
 34 35  2  0     0  0
 35 36  1  0     0  0
 32 37  1  0     0  0
 36 37  2  0     0  0
M  END
> <Compound>
13

> <canonical_smiles>
O=C(C1=CN=C(NC2=NC=NC3=C2C=C(OC)C(OCCCN4CCOCC4)=C3)S1)NC5=CC=CC=C5

> <standard_type>
pIC50

> <standard_units>
nM

> <standard_relation>
=

> <actual_activity_value>
7.376750709602099

> <predicted_activity_value>
7.568636235841013

> <Publication_ID>
nan

$$$$
13
  CDPL    08252113263D 1   1.00000     0.00000

 37 41  0     0  0            999 V2000
    0.0000    0.0000    0.0000 O   0  0  0  0  0  2           0  0  0
    0.0000    0.0000    0.0000 C   0  0  0  0  0  4           0  0  0
    0.0000    0.0000    0.0000 N   0  0  0  0  0  3           0  0  0
    0.0000    0.0000    0.0000 C   0  0  0  0  0  4           0  0  0
    0.0000    0.0000    0.0000 C   0  0  0  0  0  4           0  0  0
    0.0000    0.0000    0.0000 C   0  0  0  0  0  4           0  0  0
    0.0000    0.0000    0.0000 C   0  0  0  0  0  4           0  0  0
    0.0000    0.0000    0.0000 N   0  0  0  0  0  3           0  0  0
    0.0000    0.0000    0.0000 S   0  0  0  0  0  6           0  0  0
    0.0000    0.0000    0.0000 O   0  0  0  0  0  2           0  0  0
    0.0000    0.0000    0.0000 C   0  0  0  0  0  4           0  0  0
    0.0000    0.0000    0.0000 C   0  0  0  0  0  4           0  0  0
    0.0000    0.0000    0.0000 O   0  0  0  0  0  2           0  0  0
    0.0000    0.0000    0.0000 C   0  0  0  0  0  4           0  0  0
    0.0000    0.0000    0.0000 C   0  0  0  0  0  4           0  0  0
    0.0000    0.0000    0.0000 C   0  0  0  0  0  4           0  0  0
    0.0000    0.0000    0.0000 C   0  0  0  0  0  4           0  0  0
    0.0000    0.0000    0.0000 C   0  0  0  0  0  4           0  0  0
    0.0000    0.0000    0.0000 C   0  0  0  0  0  4           0  0  0
    0.0000    0.0000    0.0000 C   0  0  0  0  0  4           0  0  0
    0.0000    0.0000    0.0000 C   0  0  0  0  0  4           0  0  0
    0.0000    0.0000    0.0000 C   0  0  0  0  0  4           0  0  0
    0.0000    0.0000    0.0000 C   0  0  0  0  0  4           0  0  0
    0.0000    0.0000    0.0000 N   0  0  0  0  0  3           0  0  0
    0.0000    0.0000    0.0000 C   0  0  0  0  0  4           0  0  0
    0.0000    0.0000    0.0000 C   0  0  0  0  0  4           0  0  0
    0.0000    0.0000    0.0000 C   0  0  0  0  0  4           0  0  0
    0.0000    0.0000    0.0000 C   0  0  0  0  0  4           0  0  0
    0.0000    0.0000    0.0000 C   0  0  0  0  0  4           0  0  0
    0.0000    0.0000    0.0000 C   0  0  0  0  0  4           0  0  0
    0.0000    0.0000    0.0000 C   0  0  0  0  0  4           0  0  0
    0.0000    0.0000    0.0000 N   0  0  0  0  0  3           0  0  0
    0.0000    0.0000    0.0000 C   0  0  0  0  0  4           0  0  0
    0.0000    0.0000    0.0000 C   0  0  0  0  0  4           0  0  0
    0.0000    0.0000    0.0000 C   0  0  0  0  0  4           0  0  0
    0.0000    0.0000    0.0000 C   0  0  0  0  0  4           0  0  0
    0.0000    0.0000    0.0000 C   0  0  0  0  0  4           0  0  0
  1  2  2  0     0  0
  2  3  1  0     0  0
  3  4  1  0     0  0
  4  5  2  0     0  0
  5  6  1  0     0  0
  6  7  2  0     0  0
  7  8  1  0     0  0
  8  9  1  0     0  0
  9 10  2  0     0  0
  9 11  1  0     0  0
 11 12  1  0     0  0
  9 13  2  0     0  0
  7 14  1  0     0  0
  4 15  1  0     0  0
 14 15  2  0     0  0
  2 16  1  0     0  0
  5 16  1  0     0  0
 16 17  2  0     0  0
 17 18  1  0     0  0
 18 19  2  0     0  0
 19 20  1  0     0  0
 20 21  2  0     0  0
 21 22  1  0     0  0
 18 23  1  0     0  0
 22 23  2  0     0  0
 17 24  1  0     0  0
 24 25  1  0     0  0
 25 26  1  0     0  0
 26 27  2  0     0  0
 25 28  2  0     0  0
 28 29  1  0     0  0
 27 30  1  0     0  0
 29 30  2  0     0  0
 30 31  1  0     0  0
 31 32  1  0     0  0
 32 33  1  0     0  0
 33 34  1  0     0  0
 34 35  1  0     0  0
 35 36  1  0     0  0
 32 37  1  0     0  0
 36 37  1  0     0  0
M  END
> <Compound>
14

> <canonical_smiles>
O=C1NC2=C(C=C(NS(=O)(CC)=O)C=C2)/C1=C(C3=CC=CC=C3)/NC(C=C4)=CC=C4CN5CCCCC5

> <standard_type>
pIC50

> <standard_units>
nM

> <standard_relation>
=

> <actual_activity_value>
6.6020599913279625

> <predicted_activity_value>
6.522878745280337

> <Publication_ID>
nan

$$$$
14
  CDPL    08252113263D 1   1.00000     0.00000

 34 38  0     0  0            999 V2000
    0.0000    0.0000    0.0000 O   0  0  0  0  0  2           0  0  0
    0.0000    0.0000    0.0000 C   0  0  0  0  0  4           0  0  0
    0.0000    0.0000    0.0000 N   0  0  0  0  0  3           0  0  0
    0.0000    0.0000    0.0000 C   0  0  0  0  0  4           0  0  0
    0.0000    0.0000    0.0000 C   0  0  0  0  0  4           0  0  0
    0.0000    0.0000    0.0000 C   0  0  0  0  0  4           0  0  0
    0.0000    0.0000    0.0000 N   0  0  0  0  0  3           0  0  0
    0.0000    0.0000    0.0000 C   0  0  0  0  0  4           0  0  0
    0.0000    0.0000    0.0000 C   0  0  0  0  0  4           0  0  0
    0.0000    0.0000    0.0000 C   0  0  0  0  0  4           0  0  0
    0.0000    0.0000    0.0000 C   0  0  0  0  0  4           0  0  0
    0.0000    0.0000    0.0000 C   0  0  0  0  0  4           0  0  0
    0.0000    0.0000    0.0000 N   0  0  0  0  0  3           0  0  0
    0.0000    0.0000    0.0000 C   0  0  0  0  0  4           0  0  0
    0.0000    0.0000    0.0000 C   0  0  0  0  0  4           0  0  0
    0.0000    0.0000    0.0000 N   0  0  0  0  0  3           0  0  0
    0.0000    0.0000    0.0000 C   0  0  0  0  0  4           0  0  0
    0.0000    0.0000    0.0000 C   0  0  0  0  0  4           0  0  0
    0.0000    0.0000    0.0000 C   0  0  0  0  0  4           0  0  0
    0.0000    0.0000    0.0000 C   0  0  0  0  0  4           0  0  0
    0.0000    0.0000    0.0000 C   0  0  0  0  0  4           0  0  0
    0.0000    0.0000    0.0000 O   0  0  0  0  0  2           0  0  0
    0.0000    0.0000    0.0000 N   0  0  0  0  0  3           0  0  0
    0.0000    0.0000    0.0000 N   0  0  0  0  0  3           0  0  0
    0.0000    0.0000    0.0000 C   0  0  0  0  0  4           0  0  0
    0.0000    0.0000    0.0000 C   0  0  0  0  0  4           0  0  0
    0.0000    0.0000    0.0000 C   0  0  2  0  0  4           0  0  0
    0.0000    0.0000    0.0000 F   0  0  0  0  0  1           0  0  0
    0.0000    0.0000    0.0000 C   0  0  0  0  0  4           0  0  0
    0.0000    0.0000    0.0000 C   0  0  0  0  0  4           0  0  0
    0.0000    0.0000    0.0000 C   0  0  0  0  0  4           0  0  0
    0.0000    0.0000    0.0000 C   0  0  0  0  0  4           0  0  0
    0.0000    0.0000    0.0000 C   0  0  0  0  0  4           0  0  0
    0.0000    0.0000    0.0000 C   0  0  0  0  0  4           0  0  0
  1  2  2  0     0  0
  2  3  1  0     0  0
  3  4  1  0     0  0
  4  5  1  0     0  0
  5  6  1  0     0  0
  6  7  1  0     0  0
  7  8  1  0     0  0
  8  9  1  0     0  0
  9 10  2  0     0  0
 10 11  1  0     0  0
 11 12  2  0     0  0
 12 13  1  0     0  0
 13 14  1  0     0  0
 14 15  1  0     0  0
 15 16  1  0     0  0
 16 17  1  0     0  0
 16 18  1  0     0  0
 13 19  1  0     0  0
 18 19  1  0     0  0
 12 20  1  0     0  0
  9 21  1  0     0  0
 20 21  2  0     0  0
  8 22  2  0     0  0
  6 23  2  0     0  0
 23 24  1  0     0  0
 24 25  1  0     0  0
  5 25  2  0     0  0
  3 26  1  0     0  0
 25 26  1  0     0  0
  2 27  1  0     0  0
 27 28  1  0     0  0
 27 29  1  0     0  0
 29 30  2  0     0  0
 30 31  1  0     0  0
 31 32  2  0     0  0
 32 33  1  0     0  0
 29 34  1  0     0  0
 33 34  2  0     0  0
M  END
> <Compound>
15

> <canonical_smiles>
O=C(N1CC(C(NC(C2=CC=C(N3CCN(C)CC3)C=C2)=O)=NN4)=C4C1)[C@H](F)C5=CC=CC=C5

> <standard_type>
pIC50

> <standard_units>
nM

> <standard_relation>
=

> <actual_activity_value>
6.522878745280337

> <predicted_activity_value>
6.292429823902063

> <Publication_ID>
nan

$$$$
15
  CDPL    08252113263D 1   1.00000     0.00000

 29 32  0     0  0            999 V2000
    0.0000    0.0000    0.0000 O   0  0  0  0  0  2           0  0  0
    0.0000    0.0000    0.0000 C   0  0  0  0  0  4           0  0  0
    0.0000    0.0000    0.0000 C   0  0  0  0  0  4           0  0  0
    0.0000    0.0000    0.0000 C   0  0  0  0  0  4           0  0  0
    0.0000    0.0000    0.0000 C   0  0  0  0  0  4           0  0  0
    0.0000    0.0000    0.0000 C   0  0  0  0  0  4           0  0  0
    0.0000    0.0000    0.0000 C   0  0  0  0  0  4           0  0  0
    0.0000    0.0000    0.0000 Cl  0  0  0  0  0  1           0  0  0
    0.0000    0.0000    0.0000 C   0  0  0  0  0  4           0  0  0
    0.0000    0.0000    0.0000 F   0  0  0  0  0  1           0  0  0
    0.0000    0.0000    0.0000 N   0  0  0  0  0  3           0  0  0
    0.0000    0.0000    0.0000 C   0  0  0  0  0  4           0  0  0
    0.0000    0.0000    0.0000 C   0  0  0  0  0  4           0  0  0
    0.0000    0.0000    0.0000 C   0  0  0  0  0  4           0  0  0
    0.0000    0.0000    0.0000 C   0  0  0  0  0  4           0  0  0
    0.0000    0.0000    0.0000 N   0  0  0  0  0  3           0  0  0
    0.0000    0.0000    0.0000 C   0  0  0  0  0  4           0  0  0
    0.0000    0.0000    0.0000 C   0  0  0  0  0  4           0  0  0
    0.0000    0.0000    0.0000 N   0  0  0  0  0  3           0  0  0
    0.0000    0.0000    0.0000 C   0  0  0  0  0  4           0  0  0
    0.0000    0.0000    0.0000 N   0  0  0  0  0  3           0  0  0
    0.0000    0.0000    0.0000 C   0  0  0  0  0  4           0  0  0
    0.0000    0.0000    0.0000 N   0  0  0  0  0  3           0  0  0
    0.0000    0.0000    0.0000 C   0  0  0  0  0  4           0  0  0
    0.0000    0.0000    0.0000 C   0  0  0  0  0  4           0  0  0
    0.0000    0.0000    0.0000 S   0  0  0  0  0  2           0  0  0
    0.0000    0.0000    0.0000 C   0  0  0  0  0  4           0  0  0
    0.0000    0.0000    0.0000 C   0  0  0  0  0  4           0  0  0
    0.0000    0.0000    0.0000 C   0  0  0  0  0  4           0  0  0
  1  2  2  0     0  0
  2  3  1  0     0  0
  3  4  2  0     0  0
  4  5  1  0     0  0
  5  6  2  0     0  0
  6  7  1  0     0  0
  7  8  1  0     0  0
  3  9  1  0     0  0
  7  9  2  0     0  0
  9 10  1  0     0  0
  2 11  1  0     0  0
 11 12  1  0     0  0
 12 13  1  0     0  0
 11 14  1  0     0  0
 14 15  1  0     0  0
 13 16  1  0     0  0
 15 16  1  0     0  0
 16 17  1  0     0  0
 17 18  1  0     0  0
 18 19  2  0     0  0
 19 20  1  0     0  0
 20 21  1  0     0  0
 21 22  1  0     0  0
 22 23  2  0     0  0
 23 24  1  0     0  0
 24 25  2  0     0  0
 22 26  1  0     0  0
 25 26  1  0     0  0
 20 27  2  0     0  0
 27 28  1  0     0  0
 18 29  1  0     0  0
 28 29  2  0     0  0
M  END
> <Compound>
16

> <canonical_smiles>
O=C(C1=CC=CC(Cl)=C1F)N(CC2)CCN2CC3=NC(NC4=NC=CS4)=CC=C3

> <standard_type>
pIC50

> <standard_units>
nM

> <standard_relation>
=

> <actual_activity_value>
6.356547323513812

> <predicted_activity_value>
6.292429823902063

> <Publication_ID>
nan

$$$$
16
  CDPL    08252113263D 1   1.00000     0.00000

 32 35  0     0  0            999 V2000
    0.0000    0.0000    0.0000 F   0  0  0  0  0  1           0  0  0
    0.0000    0.0000    0.0000 C   0  0  0  0  0  4           0  0  0
    0.0000    0.0000    0.0000 C   0  0  0  0  0  4           0  0  0
    0.0000    0.0000    0.0000 C   0  0  0  0  0  4           0  0  0
    0.0000    0.0000    0.0000 N   0  0  0  0  0  3           0  0  0
    0.0000    0.0000    0.0000 C   0  0  0  0  0  4           0  0  0
    0.0000    0.0000    0.0000 C   0  0  0  0  0  4           0  0  0
    0.0000    0.0000    0.0000 N   0  0  0  0  0  3           0  0  0
    0.0000    0.0000    0.0000 C   0  0  0  0  0  4           0  0  0
    0.0000    0.0000    0.0000 C   0  0  0  0  0  4           0  0  0
    0.0000    0.0000    0.0000 N   0  0  0  0  0  3           0  0  0
    0.0000    0.0000    0.0000 C   0  0  0  0  0  4           0  0  0
    0.0000    0.0000    0.0000 N   0  0  0  0  0  3           0  0  0
    0.0000    0.0000    0.0000 C   0  0  0  0  0  4           0  0  0
    0.0000    0.0000    0.0000 N   0  0  0  0  0  3           0  0  0
    0.0000    0.0000    0.0000 N   0  0  0  0  0  3           0  0  0
    0.0000    0.0000    0.0000 C   0  0  0  0  0  4           0  0  0
    0.0000    0.0000    0.0000 C   0  0  0  0  0  4           0  0  0
    0.0000    0.0000    0.0000 C   0  0  0  0  0  4           0  0  0
    0.0000    0.0000    0.0000 C   0  0  0  0  0  4           0  0  0
    0.0000    0.0000    0.0000 C   0  0  0  0  0  4           0  0  0
    0.0000    0.0000    0.0000 C   0  0  0  0  0  4           0  0  0
    0.0000    0.0000    0.0000 C   0  0  0  0  0  4           0  0  0
    0.0000    0.0000    0.0000 O   0  0  0  0  0  2           0  0  0
    0.0000    0.0000    0.0000 C   0  0  0  0  0  4           0  0  0
    0.0000    0.0000    0.0000 C   0  0  0  0  0  4           0  0  0
    0.0000    0.0000    0.0000 C   0  0  0  0  0  4           0  0  0
    0.0000    0.0000    0.0000 C   0  0  0  0  0  4           0  0  0
    0.0000    0.0000    0.0000 C   0  0  0  0  0  4           0  0  0
    0.0000    0.0000    0.0000 F   0  0  0  0  0  1           0  0  0
    0.0000    0.0000    0.0000 F   0  0  0  0  0  1           0  0  0
    0.0000    0.0000    0.0000 F   0  0  0  0  0  1           0  0  0
  1  2  1  0     0  0
  2  3  2  0     0  0
  3  4  1  0     0  0
  4  5  1  0     0  0
  5  6  1  0     0  0
  6  7  1  0     0  0
  7  8  1  0     0  0
  8  9  1  0     0  0
  9 10  1  0     0  0
 10 11  2  0     0  0
 11 12  1  0     0  0
 12 13  1  0     0  0
 13 14  1  0     0  0
 14 15  2  0     0  0
 15 16  1  0     0  0
 16 17  1  0     0  0
 14 18  1  0     0  0
 17 18  2  0     0  0
 12 19  2  0     0  0
 19 20  1  0     0  0
 10 21  1  0     0  0
 20 21  2  0     0  0
  8 22  1  0     0  0
  5 23  1  0     0  0
 22 23  1  0     0  0
  4 24  2  0     0  0
  3 25  1  0     0  0
 25 26  2  0     0  0
 26 27  1  0     0  0
  2 28  1  0     0  0
 27 28  2  0     0  0
 28 29  1  0     0  0
 29 30  1  0     0  0
 29 31  1  0     0  0
 29 32  1  0     0  0
M  END
> <Compound>
17

> <canonical_smiles>
FC1=C(C(N2CCN(CC3=NC(NC4=NNC=C4)=CC=C3)CC2)=O)C=CC=C1C(F)(F)F

> <standard_type>
pIC50

> <standard_units>
nM

> <standard_relation>
=

> <actual_activity_value>
6.275724130399211

> <predicted_activity_value>
6.292429823902063

> <Publication_ID>
nan

$$$$
17
  CDPL    08252113263D 1   1.00000     0.00000

 17 18  0     0  0            999 V2000
    0.0000    0.0000    0.0000 O   0  0  0  0  0  2           0  0  0
    0.0000    0.0000    0.0000 C   0  0  0  0  0  4           0  0  0
    0.0000    0.0000    0.0000 N   0  0  0  0  0  3           0  0  0
    0.0000    0.0000    0.0000 C   0  0  0  0  0  4           0  0  0
    0.0000    0.0000    0.0000 C   0  0  0  0  0  4           0  0  0
    0.0000    0.0000    0.0000 C   0  0  0  0  0  4           0  0  0
    0.0000    0.0000    0.0000 C   0  0  0  0  0  4           0  0  0
    0.0000    0.0000    0.0000 C   0  0  0  0  0  4           0  0  0
    0.0000    0.0000    0.0000 N   0  0  0  0  0  3           0  0  0
    0.0000    0.0000    0.0000 C   0  0  0  0  0  4           0  0  0
    0.0000    0.0000    0.0000 N   0  0  0  0  0  3           0  0  0
    0.0000    0.0000    0.0000 C   0  0  0  0  0  4           0  0  0
    0.0000    0.0000    0.0000 C   0  0  0  0  0  4           0  0  0
    0.0000    0.0000    0.0000 Br  0  0  0  0  0  1           0  0  0
    0.0000    0.0000    0.0000 S   0  0  0  0  0  2           0  0  0
    0.0000    0.0000    0.0000 C   0  0  0  0  0  4           0  0  0
    0.0000    0.0000    0.0000 C   0  0  0  0  0  4           0  0  0
  1  2  2  0     0  0
  2  3  1  0     0  0
  3  4  1  0     0  0
  2  5  1  0     0  0
  5  6  2  0     0  0
  6  7  1  0     0  0
  7  8  2  0     0  0
  8  9  1  0     0  0
  9 10  1  0     0  0
 10 11  2  0     0  0
 11 12  1  0     0  0
 12 13  2  0     0  0
 13 14  1  0     0  0
 10 15  1  0     0  0
 13 15  1  0     0  0
  8 16  1  0     0  0
  5 17  1  0     0  0
 16 17  2  0     0  0
M  END
> <Compound>
18

> <canonical_smiles>
O=C(NC)C1=CC=C(NC2=NC=C(Br)S2)C=C1

> <standard_type>
pIC50

> <standard_units>
nM

> <standard_relation>
=

> <actual_activity_value>
6.236572006437063

> <predicted_activity_value>
6.275724130399211

> <Publication_ID>
nan

$$$$
18
  CDPL    08252113263D 1   1.00000     0.00000

 33 36  0     0  0            999 V2000
    0.0000    0.0000    0.0000 F   0  0  0  0  0  1           0  0  0
    0.0000    0.0000    0.0000 C   0  0  0  0  0  4           0  0  0
    0.0000    0.0000    0.0000 F   0  0  0  0  0  1           0  0  0
    0.0000    0.0000    0.0000 F   0  0  0  0  0  1           0  0  0
    0.0000    0.0000    0.0000 C   0  0  0  0  0  4           0  0  0
    0.0000    0.0000    0.0000 C   0  0  0  0  0  4           0  0  0
    0.0000    0.0000    0.0000 C   0  0  0  0  0  4           0  0  0
    0.0000    0.0000    0.0000 C   0  0  0  0  0  4           0  0  0
    0.0000    0.0000    0.0000 C   0  0  0  0  0  4           0  0  0
    0.0000    0.0000    0.0000 C   0  0  0  0  0  4           0  0  0
    0.0000    0.0000    0.0000 N   0  0  0  0  0  3           0  0  0
    0.0000    0.0000    0.0000 C   0  0  0  0  0  4           0  0  0
    0.0000    0.0000    0.0000 C   0  0  0  0  0  4           0  0  0
    0.0000    0.0000    0.0000 N   0  0  0  0  0  3           0  0  0
    0.0000    0.0000    0.0000 C   0  0  0  0  0  4           0  0  0
    0.0000    0.0000    0.0000 C   0  0  0  0  0  4           0  0  0
    0.0000    0.0000    0.0000 N   0  0  0  0  0  3           0  0  0
    0.0000    0.0000    0.0000 C   0  0  0  0  0  4           0  0  0
    0.0000    0.0000    0.0000 N   0  0  0  0  0  3           0  0  0
    0.0000    0.0000    0.0000 C   0  0  0  0  0  4           0  0  0
    0.0000    0.0000    0.0000 N   0  0  0  0  0  3           0  0  0
    0.0000    0.0000    0.0000 N   0  0  0  0  0  3           0  0  0
    0.0000    0.0000    0.0000 C   0  0  0  0  0  4           0  0  0
    0.0000    0.0000    0.0000 C   0  0  0  0  0  4           0  0  0
    0.0000    0.0000    0.0000 C   0  0  0  0  0  4           0  0  0
    0.0000    0.0000    0.0000 C   0  0  0  0  0  4           0  0  0
    0.0000    0.0000    0.0000 C   0  0  0  0  0  4           0  0  0
    0.0000    0.0000    0.0000 C   0  0  0  0  0  4           0  0  0
    0.0000    0.0000    0.0000 C   0  0  0  0  0  4           0  0  0
    0.0000    0.0000    0.0000 C   0  0  0  0  0  4           0  0  0
    0.0000    0.0000    0.0000 O   0  0  0  0  0  2           0  0  0
    0.0000    0.0000    0.0000 C   0  0  0  0  0  4           0  0  0
    0.0000    0.0000    0.0000 F   0  0  0  0  0  1           0  0  0
  1  2  1  0     0  0
  2  3  1  0     0  0
  2  4  1  0     0  0
  2  5  1  0     0  0
  5  6  2  0     0  0
  6  7  1  0     0  0
  7  8  2  0     0  0
  8  9  1  0     0  0
  9 10  1  0     0  0
 10 11  1  0     0  0
 11 12  1  0     0  0
 12 13  1  0     0  0
 13 14  1  0     0  0
 14 15  1  0     0  0
 15 16  1  0     0  0
 16 17  2  0     0  0
 17 18  1  0     0  0
 18 19  1  0     0  0
 19 20  1  0     0  0
 20 21  2  0     0  0
 21 22  1  0     0  0
 22 23  1  0     0  0
 23 24  1  0     0  0
 20 25  1  0     0  0
 23 25  2  0     0  0
 18 26  2  0     0  0
 26 27  1  0     0  0
 16 28  1  0     0  0
 27 28  2  0     0  0
 14 29  1  0     0  0
 11 30  1  0     0  0
 29 30  1  0     0  0
 10 31  2  0     0  0
  5 32  1  0     0  0
  9 32  2  0     0  0
 32 33  1  0     0  0
M  END
> <Compound>
19

> <canonical_smiles>
FC(F)(F)C1=CC=CC(C(N2CCN(CC3=NC(NC4=NNC(C)=C4)=CC=C3)CC2)=O)=C1F

> <standard_type>
pIC50

> <standard_units>
nM

> <standard_relation>
=

> <actual_activity_value>
6.229147988357855

> <predicted_activity_value>
6.292429823902063

> <Publication_ID>
nan

$$$$
19
  CDPL    08252113263D 1   1.00000     0.00000

 35 39  0     0  0            999 V2000
    0.0000    0.0000    0.0000 C   0  0  0  0  0  4           0  0  0
    0.0000    0.0000    0.0000 N   0  0  0  0  0  3           0  0  0
    0.0000    0.0000    0.0000 C   0  0  0  0  0  4           0  0  0
    0.0000    0.0000    0.0000 C   0  0  0  0  0  4           0  0  0
    0.0000    0.0000    0.0000 C   0  0  0  0  0  4           0  0  0
    0.0000    0.0000    0.0000 C   0  0  0  0  0  4           0  0  0
    0.0000    0.0000    0.0000 N   0  0  0  0  0  3           0  0  0
    0.0000    0.0000    0.0000 C   0  0  0  0  0  4           0  0  0
    0.0000    0.0000    0.0000 C   0  0  0  0  0  4           0  0  0
    0.0000    0.0000    0.0000 C   0  0  0  0  0  4           0  0  0
    0.0000    0.0000    0.0000 C   0  0  0  0  0  4           0  0  0
    0.0000    0.0000    0.0000 C   0  0  0  0  0  4           0  0  0
    0.0000    0.0000    0.0000 N   0  0  0  0  0  3           0  0  0
    0.0000    0.0000    0.0000 C   0  0  0  0  0  4           0  0  0
    0.0000    0.0000    0.0000 N   0  0  0  0  0  3           0  0  0
    0.0000    0.0000    0.0000 N   0  0  0  0  0  3           0  0  0
    0.0000    0.0000    0.0000 C   0  0  0  0  0  4           0  0  0
    0.0000    0.0000    0.0000 C   0  0  0  0  0  4           0  0  0
    0.0000    0.0000    0.0000 C   0  0  0  0  0  4           0  0  0
    0.0000    0.0000    0.0000 N   0  0  0  0  0  3           0  0  0
    0.0000    0.0000    0.0000 C   0  0  0  0  0  4           0  0  0
    0.0000    0.0000    0.0000 C   0  0  2  0  0  4           0  0  0
    0.0000    0.0000    0.0000 C   0  0  0  0  0  4           0  0  0
    0.0000    0.0000    0.0000 C   0  0  0  0  0  4           0  0  0
    0.0000    0.0000    0.0000 C   0  0  0  0  0  4           0  0  0
    0.0000    0.0000    0.0000 C   0  0  0  0  0  4           0  0  0
    0.0000    0.0000    0.0000 C   0  0  0  0  0  4           0  0  0
    0.0000    0.0000    0.0000 C   0  0  0  0  0  4           0  0  0
    0.0000    0.0000    0.0000 O   0  0  0  0  0  2           0  0  0
    0.0000    0.0000    0.0000 C   0  0  0  0  0  4           0  0  0
    0.0000    0.0000    0.0000 O   0  0  0  0  0  2           0  0  0
    0.0000    0.0000    0.0000 C   0  0  0  0  0  4           0  0  0
    0.0000    0.0000    0.0000 O   0  0  0  0  0  2           0  0  0
    0.0000    0.0000    0.0000 C   0  0  0  0  0  4           0  0  0
    0.0000    0.0000    0.0000 C   0  0  0  0  0  4           0  0  0
  1  2  1  0     0  0
  2  3  1  0     0  0
  3  4  1  0     0  0
  2  5  1  0     0  0
  5  6  1  0     0  0
  4  7  1  0     0  0
  6  7  1  0     0  0
  7  8  1  0     0  0
  8  9  2  0     0  0
  9 10  1  0     0  0
 10 11  2  0     0  0
 11 12  1  0     0  0
 12 13  1  0     0  0
 13 14  1  0     0  0
 14 15  2  0     0  0
 15 16  1  0     0  0
 16 17  1  0     0  0
 14 18  1  0     0  0
 17 18  2  0     0  0
 18 19  1  0     0  0
 19 20  1  0     0  0
 20 21  1  0     0  0
 21 22  1  0     0  0
 22 23  1  0     0  0
 23 24  2  0     0  0
 24 25  1  0     0  0
 25 26  2  0     0  0
 26 27  1  0     0  0
 23 28  1  0     0  0
 27 28  2  0     0  0
 22 29  1  0     0  0
 29 30  1  0     0  0
 21 31  2  0     0  0
 17 32  1  0     0  0
 20 32  1  0     0  0
 12 33  2  0     0  0
 11 34  1  0     0  0
  8 35  1  0     0  0
 34 35  2  0     0  0
M  END
> <Compound>
20

> <canonical_smiles>
CN(CC1)CCN1C2=CC=C(C(NC3=NNC4=C3CN(C([C@H](C5=CC=CC=C5)OC)=O)C4)=O)C=C2

> <standard_type>
pIC50

> <standard_units>
nM

> <standard_relation>
=

> <actual_activity_value>
6.200659450546418

> <predicted_activity_value>
6.2839966563652006

> <Publication_ID>
nan

$$$$
