3
XXILIB    08252103493D 0   0.00000     0.00000

 34 37  0     1  0            999 V2000
    3.9192   -0.4544    0.7871 S   0  0  0  0  0  2           0  0  0
    9.0398   -4.4456   -2.7316 F   0  0  0  0  0  1           0  0  0
   -2.9470   -0.2996   -4.7704 O   0  0  0  0  0  2           0  0  0
   -0.2003   -0.2152   -4.8581 O   0  0  0  0  0  2           0  0  0
    5.6662   -4.0264    2.8455 O   0  0  0  0  0  2           0  0  0
   -6.3815   -0.5046   -5.9297 O   0  0  0  0  0  2           0  0  0
    1.7953   -1.1817    2.0413 N   0  0  0  0  0  3           0  0  0
   -0.6605   -0.0000    1.1845 N   0  0  0  0  0  3           0  0  0
   -2.7579   -0.0594    0.0228 N   0  0  0  0  0  3           0  0  0
    1.4109   -0.0000    0.0000 N   0  0  0  0  0  3           0  0  0
    6.6206   -2.8739    1.0637 N   0  0  0  0  0  3           0  0  0
    2.1978   -0.5509    0.9542 C   0  0  0  0  0  4           0  0  0
    4.1207   -1.3110    2.2561 C   0  0  0  0  0  4           0  0  0
    8.3824   -4.7190   -1.5959 C   0  0  0  0  0  4           0  0  0
   -2.2654   -0.1910   -3.5908 C   0  0  0  0  0  4           0  0  0
   -0.8735   -0.1473   -3.6711 C   0  0  0  0  0  4           0  0  0
   -1.9994   -0.0215    1.1280 C   0  0  0  0  0  4           0  0  0
    0.0000    0.0000    0.0000 C   0  0  0  0  0  4           0  0  0
   -2.1115   -0.0848   -1.1499 C   0  0  0  0  0  4           0  0  0
    2.8804   -1.6141    2.7759 C   0  0  0  0  0  4           0  0  0
    7.1567   -3.9538    0.3367 C   0  0  0  0  0  4           0  0  0
   -0.7045   -0.0618   -1.2298 C   0  0  0  0  0  4           0  0  0
    7.8450   -3.6741   -0.8482 C   0  0  0  0  0  4           0  0  0
    8.2480   -6.0406   -1.1846 C   0  0  0  0  0  4           0  0  0
   -2.8623   -0.1491   -2.3248 C   0  0  0  0  0  4           0  0  0
   -0.1013   -0.1072   -2.5086 C   0  0  0  0  0  4           0  0  0
    7.0210   -5.2833    0.7590 C   0  0  0  0  0  4           0  0  0
    7.5666   -6.3212   -0.0025 C   0  0  0  0  0  4           0  0  0
    5.9139   -2.9772    2.2524 C   0  0  0  0  0  4           0  0  0
   -4.3670   -0.3417   -4.6548 C   0  0  0  0  0  4           0  0  0
   -4.9640   -0.4625   -6.0451 C   0  0  0  0  0  4           0  0  0
    0.1459   -1.5294   -5.2881 C   0  0  0  0  0  4           0  0  0
   -7.0085   -0.6178   -7.1999 C   0  0  0  0  0  4           0  0  0
    5.4693   -1.6353    2.7879 C   0  0  0  0  0  4           0  0  0
  1 12  1  0     0  0
  1 13  1  0     0  0
  2 14  1  0     0  0
  3 15  1  0     0  0
  3 30  1  0     0  0
  4 16  1  0     0  0
  4 32  1  0     0  0
  5 29  2  0     0  0
  6 31  1  0     0  0
  6 33  1  0     0  0
  7 12  2  0     0  0
  7 20  1  0     0  0
  8 17  1  0     0  0
  8 18  2  0     0  0
  9 17  2  0     0  0
  9 19  1  0     0  0
 10 12  1  0     0  0
 10 18  1  0     0  0
 11 21  1  0     0  0
 11 29  1  0     0  0
 13 20  2  0     0  0
 13 34  1  0     0  0
 14 23  2  0     0  0
 14 24  1  0     0  0
 15 16  1  0     0  0
 15 25  2  0     0  0
 16 26  2  0     0  0
 18 22  1  0     0  0
 19 22  2  0     0  0
 19 25  1  0     0  0
 21 23  1  0     0  0
 21 27  2  0     0  0
 22 26  1  0     0  0
 24 28  2  0     0  0
 27 28  1  0     0  0
 29 34  1  0     0  0
 30 31  1  0     0  0
M  END
> <standard_type>
pIC50

> <# Confs.>
25

> <canonical_smiles>
FC1=CC(NC(CC2=CN=C(NC3=NC=NC4=C3C=C(OC)C(OCCOC)=C4)S2)=O)=CC=C1

> <standard_relation>
=

> <Publication_ID>
nan

> <predicted_activity_value>
8.045757490560675

> <actual_activity_value>
8.096910013008056

> <Compound>
4

> <standard_units>
nM

> hash
10565851915682723624

$$$$
3
XXILIB    08252103493D 0   0.00000     0.00000

 34 37  0     1  0            999 V2000
    3.9192    0.4544    0.7871 S   0  0  0  0  0  2           0  0  0
    9.0398   -4.5885    2.4842 F   0  0  0  0  0  1           0  0  0
   -2.9470   -0.2996   -4.7704 O   0  0  0  0  0  2           0  0  0
   -0.2003   -0.2152   -4.8581 O   0  0  0  0  0  2           0  0  0
    5.6662    0.4511    4.9097 O   0  0  0  0  0  2           0  0  0
   -6.3815   -0.5046   -5.9297 O   0  0  0  0  0  2           0  0  0
    1.7953    1.1769    2.0440 N   0  0  0  0  0  3           0  0  0
   -0.6605   -0.0000    1.1845 N   0  0  0  0  0  3           0  0  0
   -2.7579   -0.0594    0.0228 N   0  0  0  0  0  3           0  0  0
    1.4109    0.0000    0.0000 N   0  0  0  0  0  3           0  0  0
    6.6206   -0.5158    3.0207 N   0  0  0  0  0  3           0  0  0
    2.1978    0.5509    0.9542 C   0  0  0  0  0  4           0  0  0
    4.1207    1.2983    2.2634 C   0  0  0  0  0  4           0  0  0
    8.3824   -3.7416    3.2888 C   0  0  0  0  0  4           0  0  0
   -2.2654   -0.1910   -3.5908 C   0  0  0  0  0  4           0  0  0
   -0.8735   -0.1473   -3.6711 C   0  0  0  0  0  4           0  0  0
   -1.9994   -0.0215    1.1280 C   0  0  0  0  0  4           0  0  0
    0.0000    0.0000    0.0000 C   0  0  0  0  0  4           0  0  0
   -2.1115   -0.0848   -1.1499 C   0  0  0  0  0  4           0  0  0
    2.8804    1.5970    2.7858 C   0  0  0  0  0  4           0  0  0
    7.1567   -1.6853    3.5924 C   0  0  0  0  0  4           0  0  0
   -0.7045   -0.0618   -1.2298 C   0  0  0  0  0  4           0  0  0
    7.8450   -2.5716    2.7578 C   0  0  0  0  0  4           0  0  0
    8.2480   -4.0462    4.6390 C   0  0  0  0  0  4           0  0  0
   -2.8623   -0.1491   -2.3248 C   0  0  0  0  0  4           0  0  0
   -0.1013   -0.1072   -2.5086 C   0  0  0  0  0  4           0  0  0
    7.0210   -1.9844    4.9549 C   0  0  0  0  0  4           0  0  0
    7.5666   -3.1627    5.4731 C   0  0  0  0  0  4           0  0  0
    5.9139    0.4620    3.7046 C   0  0  0  0  0  4           0  0  0
   -4.3670   -0.3417   -4.6548 C   0  0  0  0  0  4           0  0  0
   -4.9640   -0.4625   -6.0451 C   0  0  0  0  0  4           0  0  0
    0.0539    1.0384   -5.4872 C   0  0  0  0  0  4           0  0  0
   -7.0085   -0.6178   -7.1999 C   0  0  0  0  0  4           0  0  0
    5.4693    1.5968    2.8102 C   0  0  0  0  0  4           0  0  0
  1 12  1  0     0  0
  1 13  1  0     0  0
  2 14  1  0     0  0
  3 15  1  0     0  0
  3 30  1  0     0  0
  4 16  1  0     0  0
  4 32  1  0     0  0
  5 29  2  0     0  0
  6 31  1  0     0  0
  6 33  1  0     0  0
  7 12  2  0     0  0
  7 20  1  0     0  0
  8 17  1  0     0  0
  8 18  2  0     0  0
  9 17  2  0     0  0
  9 19  1  0     0  0
 10 12  1  0     0  0
 10 18  1  0     0  0
 11 21  1  0     0  0
 11 29  1  0     0  0
 13 20  2  0     0  0
 13 34  1  0     0  0
 14 23  2  0     0  0
 14 24  1  0     0  0
 15 16  1  0     0  0
 15 25  2  0     0  0
 16 26  2  0     0  0
 18 22  1  0     0  0
 19 22  2  0     0  0
 19 25  1  0     0  0
 21 23  1  0     0  0
 21 27  2  0     0  0
 22 26  1  0     0  0
 24 28  2  0     0  0
 27 28  1  0     0  0
 29 34  1  0     0  0
 30 31  1  0     0  0
M  END
> <standard_type>
pIC50

> <# Confs.>
25

> <canonical_smiles>
FC1=CC(NC(CC2=CN=C(NC3=NC=NC4=C3C=C(OC)C(OCCOC)=C4)S2)=O)=CC=C1

> <standard_relation>
=

> <Publication_ID>
nan

> <predicted_activity_value>
8.045757490560675

> <actual_activity_value>
8.096910013008056

> <Compound>
4

> <standard_units>
nM

> hash
10565851915682723624

$$$$
3
XXILIB    08252103493D 0   0.00000     0.00000

 34 37  0     1  0            999 V2000
    3.9192    0.4544    0.7871 S   0  0  0  0  0  2           0  0  0
    6.9300   -3.8049    7.2600 F   0  0  0  0  0  1           0  0  0
   -2.9470   -0.2996   -4.7704 O   0  0  0  0  0  2           0  0  0
   -0.2003   -0.2152   -4.8581 O   0  0  0  0  0  2           0  0  0
    5.2039    2.1256    5.1359 O   0  0  0  0  0  2           0  0  0
   -6.3815   -0.5046   -5.9297 O   0  0  0  0  0  2           0  0  0
    1.7953    1.1769    2.0440 N   0  0  0  0  0  3           0  0  0
   -0.6605   -0.0000    1.1845 N   0  0  0  0  0  3           0  0  0
   -2.7579   -0.0594    0.0228 N   0  0  0  0  0  3           0  0  0
    1.4109   -0.0000    0.0000 N   0  0  0  0  0  3           0  0  0
    5.8892   -0.0205    4.5540 N   0  0  0  0  0  3           0  0  0
    2.1978    0.5509    0.9542 C   0  0  0  0  0  4           0  0  0
    4.1207    1.2983    2.2634 C   0  0  0  0  0  4           0  0  0
    6.5365   -2.5262    7.1778 C   0  0  0  0  0  4           0  0  0
   -2.2654   -0.1910   -3.5908 C   0  0  0  0  0  4           0  0  0
   -0.8735   -0.1473   -3.6711 C   0  0  0  0  0  4           0  0  0
   -1.9994   -0.0215    1.1280 C   0  0  0  0  0  4           0  0  0
    0.0000    0.0000    0.0000 C   0  0  0  0  0  4           0  0  0
   -2.1115   -0.0848   -1.1499 C   0  0  0  0  0  4           0  0  0
    2.8804    1.5970    2.7858 C   0  0  0  0  0  4           0  0  0
    6.0056   -0.5928    5.8350 C   0  0  0  0  0  4           0  0  0
   -0.7045   -0.0618   -1.2298 C   0  0  0  0  0  4           0  0  0
    6.4173   -1.9262    5.9266 C   0  0  0  0  0  4           0  0  0
    6.2539   -1.8213    8.3428 C   0  0  0  0  0  4           0  0  0
   -2.8623   -0.1491   -2.3248 C   0  0  0  0  0  4           0  0  0
   -0.1013   -0.1072   -2.5086 C   0  0  0  0  0  4           0  0  0
    5.7229    0.1244    7.0054 C   0  0  0  0  0  4           0  0  0
    5.8478   -0.4918    8.2542 C   0  0  0  0  0  4           0  0  0
    5.4955    1.2825    4.2886 C   0  0  0  0  0  4           0  0  0
   -4.3670   -0.3417   -4.6548 C   0  0  0  0  0  4           0  0  0
   -4.9640   -0.4625   -6.0451 C   0  0  0  0  0  4           0  0  0
    0.0539    1.0384   -5.4872 C   0  0  0  0  0  4           0  0  0
   -7.0085   -0.6178   -7.1999 C   0  0  0  0  0  4           0  0  0
    5.4693    1.5968    2.8102 C   0  0  0  0  0  4           0  0  0
  1 12  1  0     0  0
  1 13  1  0     0  0
  2 14  1  0     0  0
  3 15  1  0     0  0
  3 30  1  0     0  0
  4 16  1  0     0  0
  4 32  1  0     0  0
  5 29  2  0     0  0
  6 31  1  0     0  0
  6 33  1  0     0  0
  7 12  2  0     0  0
  7 20  1  0     0  0
  8 17  1  0     0  0
  8 18  2  0     0  0
  9 17  2  0     0  0
  9 19  1  0     0  0
 10 12  1  0     0  0
 10 18  1  0     0  0
 11 21  1  0     0  0
 11 29  1  0     0  0
 13 20  2  0     0  0
 13 34  1  0     0  0
 14 23  2  0     0  0
 14 24  1  0     0  0
 15 16  1  0     0  0
 15 25  2  0     0  0
 16 26  2  0     0  0
 18 22  1  0     0  0
 19 22  2  0     0  0
 19 25  1  0     0  0
 21 23  1  0     0  0
 21 27  2  0     0  0
 22 26  1  0     0  0
 24 28  2  0     0  0
 27 28  1  0     0  0
 29 34  1  0     0  0
 30 31  1  0     0  0
M  END
> <standard_type>
pIC50

> <# Confs.>
25

> <canonical_smiles>
FC1=CC(NC(CC2=CN=C(NC3=NC=NC4=C3C=C(OC)C(OCCOC)=C4)S2)=O)=CC=C1

> <standard_relation>
=

> <Publication_ID>
nan

> <predicted_activity_value>
8.045757490560675

> <actual_activity_value>
8.096910013008056

> <Compound>
4

> <standard_units>
nM

> hash
10565851915682723624

$$$$
3
XXILIB    08252103493D 0   0.00000     0.00000

 34 37  0     1  0            999 V2000
    3.9192    0.4544    0.7871 S   0  0  0  0  0  2           0  0  0
    9.0636    4.3902   -2.7025 F   0  0  0  0  0  1           0  0  0
   -2.9470   -0.2996   -4.7704 O   0  0  0  0  0  2           0  0  0
   -0.2003   -0.2152   -4.8581 O   0  0  0  0  0  2           0  0  0
    5.7054    3.9838    2.8849 O   0  0  0  0  0  2           0  0  0
   -6.3815   -0.5046   -5.9297 O   0  0  0  0  0  2           0  0  0
    1.7953    1.1769    2.0440 N   0  0  0  0  0  3           0  0  0
   -0.6605   -0.0000    1.1845 N   0  0  0  0  0  3           0  0  0
   -2.7579   -0.0594    0.0228 N   0  0  0  0  0  3           0  0  0
    1.4109   -0.0000    0.0000 N   0  0  0  0  0  3           0  0  0
    6.6325    2.8296    1.0898 N   0  0  0  0  0  3           0  0  0
    2.1978    0.5509    0.9542 C   0  0  0  0  0  4           0  0  0
    4.1207    1.2983    2.2634 C   0  0  0  0  0  4           0  0  0
    8.4227    4.6648   -1.5577 C   0  0  0  0  0  4           0  0  0
   -2.2654   -0.1910   -3.5908 C   0  0  0  0  0  4           0  0  0
   -0.8735   -0.1473   -3.6711 C   0  0  0  0  0  4           0  0  0
   -1.9994   -0.0215    1.1280 C   0  0  0  0  0  4           0  0  0
    0.0000    0.0000    0.0000 C   0  0  0  0  0  4           0  0  0
   -2.1115   -0.0848   -1.1499 C   0  0  0  0  0  4           0  0  0
    2.8804    1.5970    2.7858 C   0  0  0  0  0  4           0  0  0
    7.1874    3.9056    0.3712 C   0  0  0  0  0  4           0  0  0
   -0.7045   -0.0618   -1.2298 C   0  0  0  0  0  4           0  0  0
    7.8558    3.6250   -0.8248 C   0  0  0  0  0  4           0  0  0
    8.3354    5.9824   -1.1217 C   0  0  0  0  0  4           0  0  0
   -2.8623   -0.1491   -2.3248 C   0  0  0  0  0  4           0  0  0
   -0.1013   -0.1072   -2.5086 C   0  0  0  0  0  4           0  0  0
    7.0925    5.2319    0.8143 C   0  0  0  0  0  4           0  0  0
    7.6664    6.2648    0.0670 C   0  0  0  0  0  4           0  0  0
    5.9414    2.9344    2.2875 C   0  0  0  0  0  4           0  0  0
   -4.3670   -0.3417   -4.6548 C   0  0  0  0  0  4           0  0  0
   -4.9640   -0.4625   -6.0451 C   0  0  0  0  0  4           0  0  0
    0.0539    1.0384   -5.4872 C   0  0  0  0  0  4           0  0  0
   -7.0085   -0.6178   -7.1999 C   0  0  0  0  0  4           0  0  0
    5.4693    1.5968    2.8102 C   0  0  0  0  0  4           0  0  0
  1 12  1  0     0  0
  1 13  1  0     0  0
  2 14  1  0     0  0
  3 15  1  0     0  0
  3 30  1  0     0  0
  4 16  1  0     0  0
  4 32  1  0     0  0
  5 29  2  0     0  0
  6 31  1  0     0  0
  6 33  1  0     0  0
  7 12  2  0     0  0
  7 20  1  0     0  0
  8 17  1  0     0  0
  8 18  2  0     0  0
  9 17  2  0     0  0
  9 19  1  0     0  0
 10 12  1  0     0  0
 10 18  1  0     0  0
 11 21  1  0     0  0
 11 29  1  0     0  0
 13 20  2  0     0  0
 13 34  1  0     0  0
 14 23  2  0     0  0
 14 24  1  0     0  0
 15 16  1  0     0  0
 15 25  2  0     0  0
 16 26  2  0     0  0
 18 22  1  0     0  0
 19 22  2  0     0  0
 19 25  1  0     0  0
 21 23  1  0     0  0
 21 27  2  0     0  0
 22 26  1  0     0  0
 24 28  2  0     0  0
 27 28  1  0     0  0
 29 34  1  0     0  0
 30 31  1  0     0  0
M  END
> <standard_type>
pIC50

> <# Confs.>
25

> <canonical_smiles>
FC1=CC(NC(CC2=CN=C(NC3=NC=NC4=C3C=C(OC)C(OCCOC)=C4)S2)=O)=CC=C1

> <standard_relation>
=

> <Publication_ID>
nan

> <predicted_activity_value>
8.045757490560675

> <actual_activity_value>
8.096910013008056

> <Compound>
4

> <standard_units>
nM

> hash
10565851915682723624

$$$$
3
XXILIB    08252103493D 0   0.00000     0.00000

 34 37  0     1  0            999 V2000
    3.9192   -0.4544    0.7871 S   0  0  0  0  0  2           0  0  0
    6.9300   -8.1898    0.3348 F   0  0  0  0  0  1           0  0  0
   -2.9470   -0.2996   -4.7704 O   0  0  0  0  0  2           0  0  0
   -0.2003   -0.2152   -4.8581 O   0  0  0  0  0  2           0  0  0
    5.2039   -3.3850    4.4088 O   0  0  0  0  0  2           0  0  0
   -6.3815   -0.5046   -5.9297 O   0  0  0  0  0  2           0  0  0
    1.7953   -1.1817    2.0413 N   0  0  0  0  0  3           0  0  0
   -0.6605   -0.0000    1.1845 N   0  0  0  0  0  3           0  0  0
   -2.7579   -0.0594    0.0228 N   0  0  0  0  0  3           0  0  0
    1.4109   -0.0000    0.0000 N   0  0  0  0  0  3           0  0  0
    5.8892   -3.9541    2.2593 N   0  0  0  0  0  3           0  0  0
    2.1978   -0.5509    0.9542 C   0  0  0  0  0  4           0  0  0
    4.1207   -1.3110    2.2561 C   0  0  0  0  0  4           0  0  0
    6.5365   -7.4793    1.4012 C   0  0  0  0  0  4           0  0  0
   -2.2654   -0.1910   -3.5908 C   0  0  0  0  0  4           0  0  0
   -0.8735   -0.1473   -3.6711 C   0  0  0  0  0  4           0  0  0
   -1.9994   -0.0215    1.1280 C   0  0  0  0  0  4           0  0  0
    0.0000    0.0000    0.0000 C   0  0  0  0  0  4           0  0  0
   -2.1115   -0.0848   -1.1499 C   0  0  0  0  0  4           0  0  0
    2.8804   -1.6141    2.7759 C   0  0  0  0  0  4           0  0  0
    6.0056   -5.3496    2.4041 C   0  0  0  0  0  4           0  0  0
   -0.7045   -0.0618   -1.2298 C   0  0  0  0  0  4           0  0  0
    6.4173   -6.0957    1.2951 C   0  0  0  0  0  4           0  0  0
    6.2539   -8.1357    2.5941 C   0  0  0  0  0  4           0  0  0
   -2.8623   -0.1491   -2.3248 C   0  0  0  0  0  4           0  0  0
   -0.1013   -0.1072   -2.5086 C   0  0  0  0  0  4           0  0  0
    5.7229   -6.0047    3.6105 C   0  0  0  0  0  4           0  0  0
    5.8478   -7.3942    3.7012 C   0  0  0  0  0  4           0  0  0
    5.4955   -3.0728    3.2550 C   0  0  0  0  0  4           0  0  0
   -4.3670   -0.3417   -4.6548 C   0  0  0  0  0  4           0  0  0
   -4.9640   -0.4625   -6.0451 C   0  0  0  0  0  4           0  0  0
    0.0539    1.0384   -5.4872 C   0  0  0  0  0  4           0  0  0
   -7.0085   -0.6178   -7.1999 C   0  0  0  0  0  4           0  0  0
    5.4693   -1.6353    2.7879 C   0  0  0  0  0  4           0  0  0
  1 12  1  0     0  0
  1 13  1  0     0  0
  2 14  1  0     0  0
  3 15  1  0     0  0
  3 30  1  0     0  0
  4 16  1  0     0  0
  4 32  1  0     0  0
  5 29  2  0     0  0
  6 31  1  0     0  0
  6 33  1  0     0  0
  7 12  2  0     0  0
  7 20  1  0     0  0
  8 17  1  0     0  0
  8 18  2  0     0  0
  9 17  2  0     0  0
  9 19  1  0     0  0
 10 12  1  0     0  0
 10 18  1  0     0  0
 11 21  1  0     0  0
 11 29  1  0     0  0
 13 20  2  0     0  0
 13 34  1  0     0  0
 14 23  2  0     0  0
 14 24  1  0     0  0
 15 16  1  0     0  0
 15 25  2  0     0  0
 16 26  2  0     0  0
 18 22  1  0     0  0
 19 22  2  0     0  0
 19 25  1  0     0  0
 21 23  1  0     0  0
 21 27  2  0     0  0
 22 26  1  0     0  0
 24 28  2  0     0  0
 27 28  1  0     0  0
 29 34  1  0     0  0
 30 31  1  0     0  0
M  END
> <standard_type>
pIC50

> <# Confs.>
25

> <canonical_smiles>
FC1=CC(NC(CC2=CN=C(NC3=NC=NC4=C3C=C(OC)C(OCCOC)=C4)S2)=O)=CC=C1

> <standard_relation>
=

> <Publication_ID>
nan

> <predicted_activity_value>
8.045757490560675

> <actual_activity_value>
8.096910013008056

> <Compound>
4

> <standard_units>
nM

> hash
10565851915682723624

$$$$
3
XXILIB    08252103493D 0   0.00000     0.00000

 34 37  0     1  0            999 V2000
    3.9192   -0.4544    0.7871 S   0  0  0  0  0  2           0  0  0
    6.9779    3.7398    7.2539 F   0  0  0  0  0  1           0  0  0
   -2.9470   -0.2996   -4.7704 O   0  0  0  0  0  2           0  0  0
   -0.2003   -0.2152   -4.8581 O   0  0  0  0  0  2           0  0  0
    5.2173   -2.1745    5.1128 O   0  0  0  0  0  2           0  0  0
   -6.3815   -0.5046   -5.9297 O   0  0  0  0  0  2           0  0  0
    1.7953   -1.1817    2.0413 N   0  0  0  0  0  3           0  0  0
   -0.6605   -0.0000    1.1845 N   0  0  0  0  0  3           0  0  0
   -2.7579   -0.0594    0.0228 N   0  0  0  0  0  3           0  0  0
    1.4109    0.0000    0.0000 N   0  0  0  0  0  3           0  0  0
    5.9047   -0.0275    4.5366 N   0  0  0  0  0  3           0  0  0
    2.1978   -0.5509    0.9542 C   0  0  0  0  0  4           0  0  0
    4.1207   -1.3110    2.2561 C   0  0  0  0  0  4           0  0  0
    6.5879    2.4602    7.1686 C   0  0  0  0  0  4           0  0  0
   -2.2654   -0.1910   -3.5908 C   0  0  0  0  0  4           0  0  0
   -0.8735   -0.1473   -3.6711 C   0  0  0  0  0  4           0  0  0
   -1.9994   -0.0215    1.1280 C   0  0  0  0  0  4           0  0  0
    0.0000    0.0000    0.0000 C   0  0  0  0  0  4           0  0  0
   -2.1115   -0.0848   -1.1499 C   0  0  0  0  0  4           0  0  0
    2.8804   -1.6141    2.7759 C   0  0  0  0  0  4           0  0  0
    6.0361    0.5368    5.8197 C   0  0  0  0  0  4           0  0  0
   -0.7045   -0.0618   -1.2298 C   0  0  0  0  0  4           0  0  0
    6.4412    1.8720    5.9146 C   0  0  0  0  0  4           0  0  0
    6.3372    1.7424    8.3329 C   0  0  0  0  0  4           0  0  0
   -2.8623   -0.1491   -2.3248 C   0  0  0  0  0  4           0  0  0
   -0.1013   -0.1072   -2.5086 C   0  0  0  0  0  4           0  0  0
    5.7780   -0.1911    6.9893 C   0  0  0  0  0  4           0  0  0
    5.9294    0.4136    8.2407 C   0  0  0  0  0  4           0  0  0
    5.5149   -1.3309    4.2680 C   0  0  0  0  0  4           0  0  0
   -4.3670   -0.3417   -4.6548 C   0  0  0  0  0  4           0  0  0
   -4.9640   -0.4625   -6.0451 C   0  0  0  0  0  4           0  0  0
    0.1459   -1.5294   -5.2881 C   0  0  0  0  0  4           0  0  0
   -7.0085   -0.6178   -7.1999 C   0  0  0  0  0  4           0  0  0
    5.4693   -1.6353    2.7879 C   0  0  0  0  0  4           0  0  0
  1 12  1  0     0  0
  1 13  1  0     0  0
  2 14  1  0     0  0
  3 15  1  0     0  0
  3 30  1  0     0  0
  4 16  1  0     0  0
  4 32  1  0     0  0
  5 29  2  0     0  0
  6 31  1  0     0  0
  6 33  1  0     0  0
  7 12  2  0     0  0
  7 20  1  0     0  0
  8 17  1  0     0  0
  8 18  2  0     0  0
  9 17  2  0     0  0
  9 19  1  0     0  0
 10 12  1  0     0  0
 10 18  1  0     0  0
 11 21  1  0     0  0
 11 29  1  0     0  0
 13 20  2  0     0  0
 13 34  1  0     0  0
 14 23  2  0     0  0
 14 24  1  0     0  0
 15 16  1  0     0  0
 15 25  2  0     0  0
 16 26  2  0     0  0
 18 22  1  0     0  0
 19 22  2  0     0  0
 19 25  1  0     0  0
 21 23  1  0     0  0
 21 27  2  0     0  0
 22 26  1  0     0  0
 24 28  2  0     0  0
 27 28  1  0     0  0
 29 34  1  0     0  0
 30 31  1  0     0  0
M  END
> <standard_type>
pIC50

> <# Confs.>
25

> <canonical_smiles>
FC1=CC(NC(CC2=CN=C(NC3=NC=NC4=C3C=C(OC)C(OCCOC)=C4)S2)=O)=CC=C1

> <standard_relation>
=

> <Publication_ID>
nan

> <predicted_activity_value>
8.045757490560675

> <actual_activity_value>
8.096910013008056

> <Compound>
4

> <standard_units>
nM

> hash
10565851915682723624

$$$$
3
XXILIB    08252103493D 0   0.00000     0.00000

 34 37  0     1  0            999 V2000
    3.9192   -0.4544    0.7871 S   0  0  0  0  0  2           0  0  0
    9.0636    4.5356    2.4508 F   0  0  0  0  0  1           0  0  0
   -2.9470   -0.2996   -4.7704 O   0  0  0  0  0  2           0  0  0
   -0.2003   -0.2152   -4.8581 O   0  0  0  0  0  2           0  0  0
    5.7054   -0.5065    4.8925 O   0  0  0  0  0  2           0  0  0
   -6.3815   -0.5046   -5.9297 O   0  0  0  0  0  2           0  0  0
    1.7953   -1.1817    2.0413 N   0  0  0  0  0  3           0  0  0
   -0.6605   -0.0000    1.1845 N   0  0  0  0  0  3           0  0  0
   -2.7579   -0.0594    0.0228 N   0  0  0  0  0  3           0  0  0
    1.4109   -0.0000   -0.0000 N   0  0  0  0  0  3           0  0  0
    6.6325    0.4710    2.9954 N   0  0  0  0  0  3           0  0  0
    2.1978   -0.5509    0.9542 C   0  0  0  0  0  4           0  0  0
    4.1207   -1.3110    2.2561 C   0  0  0  0  0  4           0  0  0
    8.4227    3.6815    3.2610 C   0  0  0  0  0  4           0  0  0
   -2.2654   -0.1910   -3.5908 C   0  0  0  0  0  4           0  0  0
   -0.8735   -0.1473   -3.6711 C   0  0  0  0  0  4           0  0  0
   -1.9994   -0.0215    1.1280 C   0  0  0  0  0  4           0  0  0
    0.0000    0.0000    0.0000 C   0  0  0  0  0  4           0  0  0
   -2.1115   -0.0848   -1.1499 C   0  0  0  0  0  4           0  0  0
    2.8804   -1.6141    2.7759 C   0  0  0  0  0  4           0  0  0
    7.1874    1.6313    3.5680 C   0  0  0  0  0  4           0  0  0
   -0.7045   -0.0618   -1.2298 C   0  0  0  0  0  4           0  0  0
    7.8558    2.5268    2.7269 C   0  0  0  0  0  4           0  0  0
    8.3354    3.9627    4.6201 C   0  0  0  0  0  4           0  0  0
   -2.8623   -0.1491   -2.3248 C   0  0  0  0  0  4           0  0  0
   -0.1013   -0.1072   -2.5086 C   0  0  0  0  0  4           0  0  0
    7.0925    1.9107    4.9381 C   0  0  0  0  0  4           0  0  0
    7.6664    3.0743    5.4590 C   0  0  0  0  0  4           0  0  0
    5.9414   -0.5138    3.6850 C   0  0  0  0  0  4           0  0  0
   -4.3670   -0.3417   -4.6548 C   0  0  0  0  0  4           0  0  0
   -4.9640   -0.4625   -6.0451 C   0  0  0  0  0  4           0  0  0
    0.0539    1.0384   -5.4872 C   0  0  0  0  0  4           0  0  0
   -7.0085   -0.6178   -7.1999 C   0  0  0  0  0  4           0  0  0
    5.4693   -1.6353    2.7879 C   0  0  0  0  0  4           0  0  0
  1 12  1  0     0  0
  1 13  1  0     0  0
  2 14  1  0     0  0
  3 15  1  0     0  0
  3 30  1  0     0  0
  4 16  1  0     0  0
  4 32  1  0     0  0
  5 29  2  0     0  0
  6 31  1  0     0  0
  6 33  1  0     0  0
  7 12  2  0     0  0
  7 20  1  0     0  0
  8 17  1  0     0  0
  8 18  2  0     0  0
  9 17  2  0     0  0
  9 19  1  0     0  0
 10 12  1  0     0  0
 10 18  1  0     0  0
 11 21  1  0     0  0
 11 29  1  0     0  0
 13 20  2  0     0  0
 13 34  1  0     0  0
 14 23  2  0     0  0
 14 24  1  0     0  0
 15 16  1  0     0  0
 15 25  2  0     0  0
 16 26  2  0     0  0
 18 22  1  0     0  0
 19 22  2  0     0  0
 19 25  1  0     0  0
 21 23  1  0     0  0
 21 27  2  0     0  0
 22 26  1  0     0  0
 24 28  2  0     0  0
 27 28  1  0     0  0
 29 34  1  0     0  0
 30 31  1  0     0  0
M  END
> <standard_type>
pIC50

> <# Confs.>
25

> <canonical_smiles>
FC1=CC(NC(CC2=CN=C(NC3=NC=NC4=C3C=C(OC)C(OCCOC)=C4)S2)=O)=CC=C1

> <standard_relation>
=

> <Publication_ID>
nan

> <predicted_activity_value>
8.045757490560675

> <actual_activity_value>
8.096910013008056

> <Compound>
4

> <standard_units>
nM

> hash
10565851915682723624

$$$$
3
XXILIB    08252103493D 0   0.00000     0.00000

 34 37  0     1  0            999 V2000
    3.9192    0.4544    0.7871 S   0  0  0  0  0  2           0  0  0
    6.9779    8.1520    0.3882 F   0  0  0  0  0  1           0  0  0
   -2.9470   -0.2996   -4.7704 O   0  0  0  0  0  2           0  0  0
   -0.2003   -0.2152   -4.8581 O   0  0  0  0  0  2           0  0  0
    5.2173    3.3406    4.4396 O   0  0  0  0  0  2           0  0  0
   -6.3815   -0.5046   -5.9297 O   0  0  0  0  0  2           0  0  0
    1.7953    1.1769    2.0440 N   0  0  0  0  0  3           0  0  0
   -0.6605   -0.0000    1.1845 N   0  0  0  0  0  3           0  0  0
   -2.7579   -0.0594    0.0228 N   0  0  0  0  0  3           0  0  0
    1.4109    0.0000    0.0000 N   0  0  0  0  0  3           0  0  0
    5.9047    3.9151    2.2921 N   0  0  0  0  0  3           0  0  0
    2.1978    0.5509    0.9542 C   0  0  0  0  0  4           0  0  0
    4.1207    1.2983    2.2634 C   0  0  0  0  0  4           0  0  0
    6.5879    7.4383    1.4537 C   0  0  0  0  0  4           0  0  0
   -2.2654   -0.1910   -3.5908 C   0  0  0  0  0  4           0  0  0
   -0.8735   -0.1473   -3.6711 C   0  0  0  0  0  4           0  0  0
   -1.9994   -0.0215    1.1280 C   0  0  0  0  0  4           0  0  0
    0.0000    0.0000    0.0000 C   0  0  0  0  0  4           0  0  0
   -2.1115   -0.0848   -1.1499 C   0  0  0  0  0  4           0  0  0
    2.8804    1.5970    2.7858 C   0  0  0  0  0  4           0  0  0
    6.0361    5.3085    2.4450 C   0  0  0  0  0  4           0  0  0
   -0.7045   -0.0618   -1.2298 C   0  0  0  0  0  4           0  0  0
    6.4412    6.0582    1.3361 C   0  0  0  0  0  4           0  0  0
    6.3372    8.0877    2.6575 C   0  0  0  0  0  4           0  0  0
   -2.8623   -0.1491   -2.3248 C   0  0  0  0  0  4           0  0  0
   -0.1013   -0.1072   -2.5086 C   0  0  0  0  0  4           0  0  0
    5.7780    5.9573    3.6601 C   0  0  0  0  0  4           0  0  0
    5.9294    7.3434    3.7622 C   0  0  0  0  0  4           0  0  0
    5.5149    3.0307    3.2866 C   0  0  0  0  0  4           0  0  0
   -4.3670   -0.3417   -4.6548 C   0  0  0  0  0  4           0  0  0
   -4.9640   -0.4625   -6.0451 C   0  0  0  0  0  4           0  0  0
    0.0539    1.0384   -5.4872 C   0  0  0  0  0  4           0  0  0
   -7.0085   -0.6178   -7.1999 C   0  0  0  0  0  4           0  0  0
    5.4693    1.5968    2.8102 C   0  0  0  0  0  4           0  0  0
  1 12  1  0     0  0
  1 13  1  0     0  0
  2 14  1  0     0  0
  3 15  1  0     0  0
  3 30  1  0     0  0
  4 16  1  0     0  0
  4 32  1  0     0  0
  5 29  2  0     0  0
  6 31  1  0     0  0
  6 33  1  0     0  0
  7 12  2  0     0  0
  7 20  1  0     0  0
  8 17  1  0     0  0
  8 18  2  0     0  0
  9 17  2  0     0  0
  9 19  1  0     0  0
 10 12  1  0     0  0
 10 18  1  0     0  0
 11 21  1  0     0  0
 11 29  1  0     0  0
 13 20  2  0     0  0
 13 34  1  0     0  0
 14 23  2  0     0  0
 14 24  1  0     0  0
 15 16  1  0     0  0
 15 25  2  0     0  0
 16 26  2  0     0  0
 18 22  1  0     0  0
 19 22  2  0     0  0
 19 25  1  0     0  0
 21 23  1  0     0  0
 21 27  2  0     0  0
 22 26  1  0     0  0
 24 28  2  0     0  0
 27 28  1  0     0  0
 29 34  1  0     0  0
 30 31  1  0     0  0
M  END
> <standard_type>
pIC50

> <# Confs.>
25

> <canonical_smiles>
FC1=CC(NC(CC2=CN=C(NC3=NC=NC4=C3C=C(OC)C(OCCOC)=C4)S2)=O)=CC=C1

> <standard_relation>
=

> <Publication_ID>
nan

> <predicted_activity_value>
8.045757490560675

> <actual_activity_value>
8.096910013008056

> <Compound>
4

> <standard_units>
nM

> hash
10565851915682723624

$$$$
3
XXILIB    08252103493D 0   0.00000     0.00000

 34 37  0     1  0            999 V2000
    3.9192   -0.4544    0.7871 S   0  0  0  0  0  2           0  0  0
    4.6164    3.8392    7.3062 F   0  0  0  0  0  1           0  0  0
   -2.9470   -0.2996   -4.7704 O   0  0  0  0  0  2           0  0  0
   -0.2003   -0.2152   -4.8581 O   0  0  0  0  0  2           0  0  0
    5.7578   -2.2024    5.1019 O   0  0  0  0  0  2           0  0  0
   -6.3815   -0.5046   -5.9297 O   0  0  0  0  0  2           0  0  0
    1.7953   -1.1817    2.0413 N   0  0  0  0  0  3           0  0  0
   -0.6605   -0.0000    1.1845 N   0  0  0  0  0  3           0  0  0
   -2.7579   -0.0594    0.0228 N   0  0  0  0  0  3           0  0  0
    1.4109   -0.0000   -0.0000 N   0  0  0  0  0  3           0  0  0
    5.2437   -0.0008    4.5515 N   0  0  0  0  0  3           0  0  0
    2.1978   -0.5509    0.9542 C   0  0  0  0  0  4           0  0  0
    4.1207   -1.3110    2.2561 C   0  0  0  0  0  4           0  0  0
    4.8950    2.5318    7.2060 C   0  0  0  0  0  4           0  0  0
   -2.2654   -0.1910   -3.5908 C   0  0  0  0  0  4           0  0  0
   -0.8735   -0.1473   -3.6711 C   0  0  0  0  0  4           0  0  0
   -1.9994   -0.0215    1.1280 C   0  0  0  0  0  4           0  0  0
    0.0000    0.0000    0.0000 C   0  0  0  0  0  4           0  0  0
   -2.1115   -0.0848   -1.1499 C   0  0  0  0  0  4           0  0  0
    2.8804   -1.6141    2.7759 C   0  0  0  0  0  4           0  0  0
    5.2159    0.5699    5.8382 C   0  0  0  0  0  4           0  0  0
   -0.7045   -0.0618   -1.2298 C   0  0  0  0  0  4           0  0  0
    4.9242    1.9332    5.9488 C   0  0  0  0  0  4           0  0  0
    5.1504    1.7966    8.3583 C   0  0  0  0  0  4           0  0  0
   -2.8623   -0.1491   -2.3248 C   0  0  0  0  0  4           0  0  0
   -0.1013   -0.1072   -2.5086 C   0  0  0  0  0  4           0  0  0
    5.4705   -0.1778    6.9960 C   0  0  0  0  0  4           0  0  0
    5.4370    0.4376    8.2509 C   0  0  0  0  0  4           0  0  0
    5.5149   -1.3309    4.2680 C   0  0  0  0  0  4           0  0  0
   -4.3670   -0.3417   -4.6548 C   0  0  0  0  0  4           0  0  0
   -4.9640   -0.4625   -6.0451 C   0  0  0  0  0  4           0  0  0
    0.0539    1.0384   -5.4872 C   0  0  0  0  0  4           0  0  0
   -7.0085   -0.6178   -7.1999 C   0  0  0  0  0  4           0  0  0
    5.4693   -1.6353    2.7879 C   0  0  0  0  0  4           0  0  0
  1 12  1  0     0  0
  1 13  1  0     0  0
  2 14  1  0     0  0
  3 15  1  0     0  0
  3 30  1  0     0  0
  4 16  1  0     0  0
  4 32  1  0     0  0
  5 29  2  0     0  0
  6 31  1  0     0  0
  6 33  1  0     0  0
  7 12  2  0     0  0
  7 20  1  0     0  0
  8 17  1  0     0  0
  8 18  2  0     0  0
  9 17  2  0     0  0
  9 19  1  0     0  0
 10 12  1  0     0  0
 10 18  1  0     0  0
 11 21  1  0     0  0
 11 29  1  0     0  0
 13 20  2  0     0  0
 13 34  1  0     0  0
 14 23  2  0     0  0
 14 24  1  0     0  0
 15 16  1  0     0  0
 15 25  2  0     0  0
 16 26  2  0     0  0
 18 22  1  0     0  0
 19 22  2  0     0  0
 19 25  1  0     0  0
 21 23  1  0     0  0
 21 27  2  0     0  0
 22 26  1  0     0  0
 24 28  2  0     0  0
 27 28  1  0     0  0
 29 34  1  0     0  0
 30 31  1  0     0  0
M  END
> <standard_type>
pIC50

> <# Confs.>
25

> <canonical_smiles>
FC1=CC(NC(CC2=CN=C(NC3=NC=NC4=C3C=C(OC)C(OCCOC)=C4)S2)=O)=CC=C1

> <standard_relation>
=

> <Publication_ID>
nan

> <predicted_activity_value>
8.045757490560675

> <actual_activity_value>
8.096910013008056

> <Compound>
4

> <standard_units>
nM

> hash
10565851915682723624

$$$$
3
XXILIB    08252103493D 0   0.00000     0.00000

 34 37  0     1  0            999 V2000
    3.9192   -0.4544    0.7871 S   0  0  0  0  0  2           0  0  0
   10.7302   -4.5441   -1.0817 F   0  0  0  0  0  1           0  0  0
   -2.9470   -0.2996   -4.7704 O   0  0  0  0  0  2           0  0  0
   -0.2003   -0.2152   -4.8581 O   0  0  0  0  0  2           0  0  0
    5.2758   -4.0062    2.4711 O   0  0  0  0  0  2           0  0  0
   -6.3815   -0.5046   -5.9297 O   0  0  0  0  0  2           0  0  0
    1.7953   -1.1817    2.0413 N   0  0  0  0  0  3           0  0  0
   -0.6605   -0.0000    1.1845 N   0  0  0  0  0  3           0  0  0
   -2.7579   -0.0594    0.0228 N   0  0  0  0  0  3           0  0  0
    1.4109    0.0000   -0.0000 N   0  0  0  0  0  3           0  0  0
    7.0930   -2.9020    1.5263 N   0  0  0  0  0  3           0  0  0
    2.1978   -0.5509    0.9542 C   0  0  0  0  0  4           0  0  0
    4.1207   -1.3110    2.2561 C   0  0  0  0  0  4           0  0  0
    9.5945   -4.7894   -0.4134 C   0  0  0  0  0  4           0  0  0
   -2.2654   -0.1910   -3.5908 C   0  0  0  0  0  4           0  0  0
   -0.8735   -0.1473   -3.6711 C   0  0  0  0  0  4           0  0  0
   -1.9994   -0.0215    1.1280 C   0  0  0  0  0  4           0  0  0
    0.0000    0.0000    0.0000 C   0  0  0  0  0  4           0  0  0
   -2.1115   -0.0848   -1.1499 C   0  0  0  0  0  4           0  0  0
    2.8804   -1.6141    2.7759 C   0  0  0  0  0  4           0  0  0
    7.7428   -3.9887    0.9106 C   0  0  0  0  0  4           0  0  0
   -0.7045   -0.0618   -1.2298 C   0  0  0  0  0  4           0  0  0
    8.9290   -3.7386    0.2134 C   0  0  0  0  0  4           0  0  0
    9.1003   -6.0881   -0.3580 C   0  0  0  0  0  4           0  0  0
   -2.8623   -0.1491   -2.3248 C   0  0  0  0  0  4           0  0  0
   -0.1013   -0.1072   -2.5086 C   0  0  0  0  0  4           0  0  0
    7.2414   -5.2959    0.9736 C   0  0  0  0  0  4           0  0  0
    7.9212   -6.3402    0.3395 C   0  0  0  0  0  4           0  0  0
    5.9139   -2.9772    2.2524 C   0  0  0  0  0  4           0  0  0
   -4.3670   -0.3417   -4.6548 C   0  0  0  0  0  4           0  0  0
   -4.9640   -0.4625   -6.0451 C   0  0  0  0  0  4           0  0  0
    0.1459   -1.5294   -5.2881 C   0  0  0  0  0  4           0  0  0
   -7.0085   -0.6178   -7.1999 C   0  0  0  0  0  4           0  0  0
    5.4693   -1.6353    2.7879 C   0  0  0  0  0  4           0  0  0
  1 12  1  0     0  0
  1 13  1  0     0  0
  2 14  1  0     0  0
  3 15  1  0     0  0
  3 30  1  0     0  0
  4 16  1  0     0  0
  4 32  1  0     0  0
  5 29  2  0     0  0
  6 31  1  0     0  0
  6 33  1  0     0  0
  7 12  2  0     0  0
  7 20  1  0     0  0
  8 17  1  0     0  0
  8 18  2  0     0  0
  9 17  2  0     0  0
  9 19  1  0     0  0
 10 12  1  0     0  0
 10 18  1  0     0  0
 11 21  1  0     0  0
 11 29  1  0     0  0
 13 20  2  0     0  0
 13 34  1  0     0  0
 14 23  2  0     0  0
 14 24  1  0     0  0
 15 16  1  0     0  0
 15 25  2  0     0  0
 16 26  2  0     0  0
 18 22  1  0     0  0
 19 22  2  0     0  0
 19 25  1  0     0  0
 21 23  1  0     0  0
 21 27  2  0     0  0
 22 26  1  0     0  0
 24 28  2  0     0  0
 27 28  1  0     0  0
 29 34  1  0     0  0
 30 31  1  0     0  0
M  END
> <standard_type>
pIC50

> <# Confs.>
25

> <canonical_smiles>
FC1=CC(NC(CC2=CN=C(NC3=NC=NC4=C3C=C(OC)C(OCCOC)=C4)S2)=O)=CC=C1

> <standard_relation>
=

> <Publication_ID>
nan

> <predicted_activity_value>
8.045757490560675

> <actual_activity_value>
8.096910013008056

> <Compound>
4

> <standard_units>
nM

> hash
10565851915682723624

$$$$
3
XXILIB    08252103493D 0   0.00000     0.00000

 34 37  0     1  0            999 V2000
    3.9192   -0.4544    0.7871 S   0  0  0  0  0  2           0  0  0
    9.0398   -4.4456   -2.7316 F   0  0  0  0  0  1           0  0  0
   -2.9470   -0.2996   -4.7704 O   0  0  0  0  0  2           0  0  0
   -0.2003   -0.2152   -4.8581 O   0  0  0  0  0  2           0  0  0
    5.6662   -4.0264    2.8455 O   0  0  0  0  0  2           0  0  0
   -5.7018   -2.3488   -5.9510 O   0  0  0  0  0  2           0  0  0
    1.7953   -1.1817    2.0413 N   0  0  0  0  0  3           0  0  0
   -0.6605    0.0000    1.1845 N   0  0  0  0  0  3           0  0  0
   -2.7579   -0.0594    0.0228 N   0  0  0  0  0  3           0  0  0
    1.4109   -0.0000    0.0000 N   0  0  0  0  0  3           0  0  0
    6.6206   -2.8739    1.0637 N   0  0  0  0  0  3           0  0  0
    2.1978   -0.5509    0.9542 C   0  0  0  0  0  4           0  0  0
    4.1207   -1.3110    2.2561 C   0  0  0  0  0  4           0  0  0
    8.3824   -4.7190   -1.5959 C   0  0  0  0  0  4           0  0  0
   -2.2654   -0.1910   -3.5908 C   0  0  0  0  0  4           0  0  0
   -0.8735   -0.1473   -3.6711 C   0  0  0  0  0  4           0  0  0
   -1.9994   -0.0215    1.1280 C   0  0  0  0  0  4           0  0  0
    0.0000   -0.0000    0.0000 C   0  0  0  0  0  4           0  0  0
   -2.1115   -0.0848   -1.1499 C   0  0  0  0  0  4           0  0  0
    2.8804   -1.6141    2.7759 C   0  0  0  0  0  4           0  0  0
    7.1567   -3.9538    0.3367 C   0  0  0  0  0  4           0  0  0
   -0.7045   -0.0618   -1.2298 C   0  0  0  0  0  4           0  0  0
    7.8450   -3.6741   -0.8482 C   0  0  0  0  0  4           0  0  0
    8.2480   -6.0406   -1.1846 C   0  0  0  0  0  4           0  0  0
   -2.8623   -0.1491   -2.3248 C   0  0  0  0  0  4           0  0  0
   -0.1013   -0.1072   -2.5086 C   0  0  0  0  0  4           0  0  0
    7.0210   -5.2833    0.7590 C   0  0  0  0  0  4           0  0  0
    7.5666   -6.3212   -0.0025 C   0  0  0  0  0  4           0  0  0
    5.9139   -2.9772    2.2524 C   0  0  0  0  0  4           0  0  0
   -4.1948   -0.9842   -4.6951 C   0  0  0  0  0  4           0  0  0
   -4.4561   -1.6654   -6.0262 C   0  0  0  0  0  4           0  0  0
    0.0539    1.0384   -5.4872 C   0  0  0  0  0  4           0  0  0
   -6.0110   -3.0123   -7.1690 C   0  0  0  0  0  4           0  0  0
    5.4693   -1.6353    2.7879 C   0  0  0  0  0  4           0  0  0
  1 12  1  0     0  0
  1 13  1  0     0  0
  2 14  1  0     0  0
  3 15  1  0     0  0
  3 30  1  0     0  0
  4 16  1  0     0  0
  4 32  1  0     0  0
  5 29  2  0     0  0
  6 31  1  0     0  0
  6 33  1  0     0  0
  7 12  2  0     0  0
  7 20  1  0     0  0
  8 17  1  0     0  0
  8 18  2  0     0  0
  9 17  2  0     0  0
  9 19  1  0     0  0
 10 12  1  0     0  0
 10 18  1  0     0  0
 11 21  1  0     0  0
 11 29  1  0     0  0
 13 20  2  0     0  0
 13 34  1  0     0  0
 14 23  2  0     0  0
 14 24  1  0     0  0
 15 16  1  0     0  0
 15 25  2  0     0  0
 16 26  2  0     0  0
 18 22  1  0     0  0
 19 22  2  0     0  0
 19 25  1  0     0  0
 21 23  1  0     0  0
 21 27  2  0     0  0
 22 26  1  0     0  0
 24 28  2  0     0  0
 27 28  1  0     0  0
 29 34  1  0     0  0
 30 31  1  0     0  0
M  END
> <standard_type>
pIC50

> <# Confs.>
25

> <canonical_smiles>
FC1=CC(NC(CC2=CN=C(NC3=NC=NC4=C3C=C(OC)C(OCCOC)=C4)S2)=O)=CC=C1

> <standard_relation>
=

> <Publication_ID>
nan

> <predicted_activity_value>
8.045757490560675

> <actual_activity_value>
8.096910013008056

> <Compound>
4

> <standard_units>
nM

> hash
10565851915682723624

$$$$
3
XXILIB    08252103493D 0   0.00000     0.00000

 34 37  0     1  0            999 V2000
    3.9192    0.4544    0.7871 S   0  0  0  0  0  2           0  0  0
    5.3099    8.5369    4.5193 F   0  0  0  0  0  1           0  0  0
   -2.9470   -0.2996   -4.7704 O   0  0  0  0  0  2           0  0  0
   -0.2003   -0.2152   -4.8581 O   0  0  0  0  0  2           0  0  0
    6.5822    3.0323    1.2418 O   0  0  0  0  0  2           0  0  0
   -6.3815   -0.5046   -5.9297 O   0  0  0  0  0  2           0  0  0
    1.7953    1.1769    2.0440 N   0  0  0  0  0  3           0  0  0
   -0.6605   -0.0000    1.1845 N   0  0  0  0  0  3           0  0  0
   -2.7579   -0.0594    0.0228 N   0  0  0  0  0  3           0  0  0
    1.4109   -0.0000    0.0000 N   0  0  0  0  0  3           0  0  0
    5.5857    3.9899    3.1137 N   0  0  0  0  0  3           0  0  0
    2.1978    0.5509    0.9542 C   0  0  0  0  0  4           0  0  0
    4.1207    1.2983    2.2634 C   0  0  0  0  0  4           0  0  0
    5.7305    7.6377    3.6186 C   0  0  0  0  0  4           0  0  0
   -2.2654   -0.1910   -3.5908 C   0  0  0  0  0  4           0  0  0
   -0.8735   -0.1473   -3.6711 C   0  0  0  0  0  4           0  0  0
   -1.9994   -0.0215    1.1280 C   0  0  0  0  0  4           0  0  0
    0.0000    0.0000    0.0000 C   0  0  0  0  0  4           0  0  0
   -2.1115   -0.0848   -1.1499 C   0  0  0  0  0  4           0  0  0
    2.8804    1.5970    2.7858 C   0  0  0  0  0  4           0  0  0
    5.8888    5.3451    2.8822 C   0  0  0  0  0  4           0  0  0
   -0.7045   -0.0618   -1.2298 C   0  0  0  0  0  4           0  0  0
    5.4539    6.2875    3.8196 C   0  0  0  0  0  4           0  0  0
    6.4346    8.0683    2.4995 C   0  0  0  0  0  4           0  0  0
   -2.8623   -0.1491   -2.3248 C   0  0  0  0  0  4           0  0  0
   -0.1013   -0.1072   -2.5086 C   0  0  0  0  0  4           0  0  0
    6.6024    5.7720    1.7540 C   0  0  0  0  0  4           0  0  0
    6.8725    7.1309    1.5667 C   0  0  0  0  0  4           0  0  0
    5.9414    2.9344    2.2875 C   0  0  0  0  0  4           0  0  0
   -4.3670   -0.3417   -4.6548 C   0  0  0  0  0  4           0  0  0
   -4.9640   -0.4625   -6.0451 C   0  0  0  0  0  4           0  0  0
    0.0539    1.0384   -5.4872 C   0  0  0  0  0  4           0  0  0
   -7.0085   -0.6178   -7.1999 C   0  0  0  0  0  4           0  0  0
    5.4693    1.5968    2.8102 C   0  0  0  0  0  4           0  0  0
  1 12  1  0     0  0
  1 13  1  0     0  0
  2 14  1  0     0  0
  3 15  1  0     0  0
  3 30  1  0     0  0
  4 16  1  0     0  0
  4 32  1  0     0  0
  5 29  2  0     0  0
  6 31  1  0     0  0
  6 33  1  0     0  0
  7 12  2  0     0  0
  7 20  1  0     0  0
  8 17  1  0     0  0
  8 18  2  0     0  0
  9 17  2  0     0  0
  9 19  1  0     0  0
 10 12  1  0     0  0
 10 18  1  0     0  0
 11 21  1  0     0  0
 11 29  1  0     0  0
 13 20  2  0     0  0
 13 34  1  0     0  0
 14 23  2  0     0  0
 14 24  1  0     0  0
 15 16  1  0     0  0
 15 25  2  0     0  0
 16 26  2  0     0  0
 18 22  1  0     0  0
 19 22  2  0     0  0
 19 25  1  0     0  0
 21 23  1  0     0  0
 21 27  2  0     0  0
 22 26  1  0     0  0
 24 28  2  0     0  0
 27 28  1  0     0  0
 29 34  1  0     0  0
 30 31  1  0     0  0
M  END
> <standard_type>
pIC50

> <# Confs.>
25

> <canonical_smiles>
FC1=CC(NC(CC2=CN=C(NC3=NC=NC4=C3C=C(OC)C(OCCOC)=C4)S2)=O)=CC=C1

> <standard_relation>
=

> <Publication_ID>
nan

> <predicted_activity_value>
8.045757490560675

> <actual_activity_value>
8.096910013008056

> <Compound>
4

> <standard_units>
nM

> hash
10565851915682723624

$$$$
3
XXILIB    08252103493D 0   0.00000     0.00000

 34 37  0     1  0            999 V2000
    3.9192   -0.4544    0.7871 S   0  0  0  0  0  2           0  0  0
    4.5682   -8.2592    0.2534 F   0  0  0  0  0  1           0  0  0
   -2.9470   -0.2996   -4.7704 O   0  0  0  0  0  2           0  0  0
   -0.2003   -0.2152   -4.8581 O   0  0  0  0  0  2           0  0  0
    5.7448   -3.3707    4.4224 O   0  0  0  0  0  2           0  0  0
   -6.3815   -0.5046   -5.9297 O   0  0  0  0  0  2           0  0  0
    1.7953   -1.1817    2.0413 N   0  0  0  0  0  3           0  0  0
   -0.6605   -0.0000    1.1845 N   0  0  0  0  0  3           0  0  0
   -2.7579   -0.0594    0.0228 N   0  0  0  0  0  3           0  0  0
    1.4109    0.0000   -0.0000 N   0  0  0  0  0  3           0  0  0
    5.2282   -3.9739    2.2353 N   0  0  0  0  0  3           0  0  0
    2.1978   -0.5509    0.9542 C   0  0  0  0  0  4           0  0  0
    4.1207   -1.3110    2.2561 C   0  0  0  0  0  4           0  0  0
    4.8434   -7.5290    1.3432 C   0  0  0  0  0  4           0  0  0
   -2.2654   -0.1910   -3.5908 C   0  0  0  0  0  4           0  0  0
   -0.8735   -0.1473   -3.6711 C   0  0  0  0  0  4           0  0  0
   -1.9994   -0.0215    1.1280 C   0  0  0  0  0  4           0  0  0
    0.0000    0.0000    0.0000 C   0  0  0  0  0  4           0  0  0
   -2.1115   -0.0848   -1.1499 C   0  0  0  0  0  4           0  0  0
    2.8804   -1.6141    2.7759 C   0  0  0  0  0  4           0  0  0
    5.1854   -5.3742    2.3744 C   0  0  0  0  0  4           0  0  0
   -0.7045   -0.0618   -1.2298 C   0  0  0  0  0  4           0  0  0
    4.9003   -6.1411    1.2402 C   0  0  0  0  0  4           0  0  0
    5.0667   -8.1693    2.5573 C   0  0  0  0  0  4           0  0  0
   -2.8623   -0.1491   -2.3248 C   0  0  0  0  0  4           0  0  0
   -0.1013   -0.1072   -2.5086 C   0  0  0  0  0  4           0  0  0
    5.4153   -6.0136    3.6003 C   0  0  0  0  0  4           0  0  0
    5.3551   -7.4077    3.6874 C   0  0  0  0  0  4           0  0  0
    5.4955   -3.0728    3.2550 C   0  0  0  0  0  4           0  0  0
   -4.3670   -0.3417   -4.6548 C   0  0  0  0  0  4           0  0  0
   -4.9640   -0.4625   -6.0451 C   0  0  0  0  0  4           0  0  0
    0.1459   -1.5294   -5.2881 C   0  0  0  0  0  4           0  0  0
   -7.0085   -0.6178   -7.1999 C   0  0  0  0  0  4           0  0  0
    5.4693   -1.6353    2.7879 C   0  0  0  0  0  4           0  0  0
  1 12  1  0     0  0
  1 13  1  0     0  0
  2 14  1  0     0  0
  3 15  1  0     0  0
  3 30  1  0     0  0
  4 16  1  0     0  0
  4 32  1  0     0  0
  5 29  2  0     0  0
  6 31  1  0     0  0
  6 33  1  0     0  0
  7 12  2  0     0  0
  7 20  1  0     0  0
  8 17  1  0     0  0
  8 18  2  0     0  0
  9 17  2  0     0  0
  9 19  1  0     0  0
 10 12  1  0     0  0
 10 18  1  0     0  0
 11 21  1  0     0  0
 11 29  1  0     0  0
 13 20  2  0     0  0
 13 34  1  0     0  0
 14 23  2  0     0  0
 14 24  1  0     0  0
 15 16  1  0     0  0
 15 25  2  0     0  0
 16 26  2  0     0  0
 18 22  1  0     0  0
 19 22  2  0     0  0
 19 25  1  0     0  0
 21 23  1  0     0  0
 21 27  2  0     0  0
 22 26  1  0     0  0
 24 28  2  0     0  0
 27 28  1  0     0  0
 29 34  1  0     0  0
 30 31  1  0     0  0
M  END
> <standard_type>
pIC50

> <# Confs.>
25

> <canonical_smiles>
FC1=CC(NC(CC2=CN=C(NC3=NC=NC4=C3C=C(OC)C(OCCOC)=C4)S2)=O)=CC=C1

> <standard_relation>
=

> <Publication_ID>
nan

> <predicted_activity_value>
8.045757490560675

> <actual_activity_value>
8.096910013008056

> <Compound>
4

> <standard_units>
nM

> hash
10565851915682723624

$$$$
3
XXILIB    08252103493D 0   0.00000     0.00000

 34 37  0     1  0            999 V2000
    3.9192   -0.4544    0.7871 S   0  0  0  0  0  2           0  0  0
    6.9300   -8.1898    0.3348 F   0  0  0  0  0  1           0  0  0
   -2.9470   -0.2996   -4.7704 O   0  0  0  0  0  2           0  0  0
   -0.2003   -0.2152   -4.8581 O   0  0  0  0  0  2           0  0  0
    5.2039   -3.3850    4.4088 O   0  0  0  0  0  2           0  0  0
   -5.8335    1.3612   -6.2167 O   0  0  0  0  0  2           0  0  0
    1.7953   -1.1817    2.0413 N   0  0  0  0  0  3           0  0  0
   -0.6605    0.0000    1.1845 N   0  0  0  0  0  3           0  0  0
   -2.7579   -0.0594    0.0228 N   0  0  0  0  0  3           0  0  0
    1.4109   -0.0000    0.0000 N   0  0  0  0  0  3           0  0  0
    5.8892   -3.9541    2.2593 N   0  0  0  0  0  3           0  0  0
    2.1978   -0.5509    0.9542 C   0  0  0  0  0  4           0  0  0
    4.1207   -1.3110    2.2561 C   0  0  0  0  0  4           0  0  0
    6.5365   -7.4793    1.4012 C   0  0  0  0  0  4           0  0  0
   -2.2654   -0.1910   -3.5908 C   0  0  0  0  0  4           0  0  0
   -0.8735   -0.1473   -3.6711 C   0  0  0  0  0  4           0  0  0
   -1.9994   -0.0215    1.1280 C   0  0  0  0  0  4           0  0  0
    0.0000    0.0000    0.0000 C   0  0  0  0  0  4           0  0  0
   -2.1115   -0.0848   -1.1499 C   0  0  0  0  0  4           0  0  0
    2.8804   -1.6141    2.7759 C   0  0  0  0  0  4           0  0  0
    6.0056   -5.3496    2.4041 C   0  0  0  0  0  4           0  0  0
   -0.7045   -0.0618   -1.2298 C   0  0  0  0  0  4           0  0  0
    6.4173   -6.0957    1.2951 C   0  0  0  0  0  4           0  0  0
    6.2539   -8.1357    2.5941 C   0  0  0  0  0  4           0  0  0
   -2.8623   -0.1491   -2.3248 C   0  0  0  0  0  4           0  0  0
   -0.1013   -0.1072   -2.5086 C   0  0  0  0  0  4           0  0  0
    5.7229   -6.0047    3.6105 C   0  0  0  0  0  4           0  0  0
    5.8478   -7.3942    3.7012 C   0  0  0  0  0  4           0  0  0
    5.4955   -3.0728    3.2550 C   0  0  0  0  0  4           0  0  0
   -4.2404    0.2990   -4.7869 C   0  0  0  0  0  4           0  0  0
   -4.5423    0.7636   -6.2001 C   0  0  0  0  0  4           0  0  0
    0.1459   -1.5294   -5.2881 C   0  0  0  0  0  4           0  0  0
   -6.1826    1.8211   -7.5151 C   0  0  0  0  0  4           0  0  0
    5.4693   -1.6353    2.7879 C   0  0  0  0  0  4           0  0  0
  1 12  1  0     0  0
  1 13  1  0     0  0
  2 14  1  0     0  0
  3 15  1  0     0  0
  3 30  1  0     0  0
  4 16  1  0     0  0
  4 32  1  0     0  0
  5 29  2  0     0  0
  6 31  1  0     0  0
  6 33  1  0     0  0
  7 12  2  0     0  0
  7 20  1  0     0  0
  8 17  1  0     0  0
  8 18  2  0     0  0
  9 17  2  0     0  0
  9 19  1  0     0  0
 10 12  1  0     0  0
 10 18  1  0     0  0
 11 21  1  0     0  0
 11 29  1  0     0  0
 13 20  2  0     0  0
 13 34  1  0     0  0
 14 23  2  0     0  0
 14 24  1  0     0  0
 15 16  1  0     0  0
 15 25  2  0     0  0
 16 26  2  0     0  0
 18 22  1  0     0  0
 19 22  2  0     0  0
 19 25  1  0     0  0
 21 23  1  0     0  0
 21 27  2  0     0  0
 22 26  1  0     0  0
 24 28  2  0     0  0
 27 28  1  0     0  0
 29 34  1  0     0  0
 30 31  1  0     0  0
M  END
> <standard_type>
pIC50

> <# Confs.>
25

> <canonical_smiles>
FC1=CC(NC(CC2=CN=C(NC3=NC=NC4=C3C=C(OC)C(OCCOC)=C4)S2)=O)=CC=C1

> <standard_relation>
=

> <Publication_ID>
nan

> <predicted_activity_value>
8.045757490560675

> <actual_activity_value>
8.096910013008056

> <Compound>
4

> <standard_units>
nM

> hash
10565851915682723624

$$$$
3
XXILIB    08252103493D 0   0.00000     0.00000

 34 37  0     1  0            999 V2000
    3.9192   -0.4544    0.7871 S   0  0  0  0  0  2           0  0  0
    6.9300   -8.1898    0.3348 F   0  0  0  0  0  1           0  0  0
   -2.9470   -0.2996   -4.7704 O   0  0  0  0  0  2           0  0  0
   -0.2003   -0.2152   -4.8581 O   0  0  0  0  0  2           0  0  0
    5.2039   -3.3850    4.4088 O   0  0  0  0  0  2           0  0  0
   -5.7018   -2.3488   -5.9510 O   0  0  0  0  0  2           0  0  0
    1.7953   -1.1817    2.0413 N   0  0  0  0  0  3           0  0  0
   -0.6605    0.0000    1.1845 N   0  0  0  0  0  3           0  0  0
   -2.7579   -0.0594    0.0228 N   0  0  0  0  0  3           0  0  0
    1.4109   -0.0000    0.0000 N   0  0  0  0  0  3           0  0  0
    5.8892   -3.9541    2.2593 N   0  0  0  0  0  3           0  0  0
    2.1978   -0.5509    0.9542 C   0  0  0  0  0  4           0  0  0
    4.1207   -1.3110    2.2561 C   0  0  0  0  0  4           0  0  0
    6.5365   -7.4793    1.4012 C   0  0  0  0  0  4           0  0  0
   -2.2654   -0.1910   -3.5908 C   0  0  0  0  0  4           0  0  0
   -0.8735   -0.1473   -3.6711 C   0  0  0  0  0  4           0  0  0
   -1.9994   -0.0215    1.1280 C   0  0  0  0  0  4           0  0  0
    0.0000   -0.0000    0.0000 C   0  0  0  0  0  4           0  0  0
   -2.1115   -0.0848   -1.1499 C   0  0  0  0  0  4           0  0  0
    2.8804   -1.6141    2.7759 C   0  0  0  0  0  4           0  0  0
    6.0056   -5.3496    2.4041 C   0  0  0  0  0  4           0  0  0
   -0.7045   -0.0618   -1.2298 C   0  0  0  0  0  4           0  0  0
    6.4173   -6.0957    1.2951 C   0  0  0  0  0  4           0  0  0
    6.2539   -8.1357    2.5941 C   0  0  0  0  0  4           0  0  0
   -2.8623   -0.1491   -2.3248 C   0  0  0  0  0  4           0  0  0
   -0.1013   -0.1072   -2.5086 C   0  0  0  0  0  4           0  0  0
    5.7229   -6.0047    3.6105 C   0  0  0  0  0  4           0  0  0
    5.8478   -7.3942    3.7012 C   0  0  0  0  0  4           0  0  0
    5.4955   -3.0728    3.2550 C   0  0  0  0  0  4           0  0  0
   -4.1948   -0.9842   -4.6951 C   0  0  0  0  0  4           0  0  0
   -4.4561   -1.6654   -6.0262 C   0  0  0  0  0  4           0  0  0
    0.0539    1.0384   -5.4872 C   0  0  0  0  0  4           0  0  0
   -6.0110   -3.0123   -7.1690 C   0  0  0  0  0  4           0  0  0
    5.4693   -1.6353    2.7879 C   0  0  0  0  0  4           0  0  0
  1 12  1  0     0  0
  1 13  1  0     0  0
  2 14  1  0     0  0
  3 15  1  0     0  0
  3 30  1  0     0  0
  4 16  1  0     0  0
  4 32  1  0     0  0
  5 29  2  0     0  0
  6 31  1  0     0  0
  6 33  1  0     0  0
  7 12  2  0     0  0
  7 20  1  0     0  0
  8 17  1  0     0  0
  8 18  2  0     0  0
  9 17  2  0     0  0
  9 19  1  0     0  0
 10 12  1  0     0  0
 10 18  1  0     0  0
 11 21  1  0     0  0
 11 29  1  0     0  0
 13 20  2  0     0  0
 13 34  1  0     0  0
 14 23  2  0     0  0
 14 24  1  0     0  0
 15 16  1  0     0  0
 15 25  2  0     0  0
 16 26  2  0     0  0
 18 22  1  0     0  0
 19 22  2  0     0  0
 19 25  1  0     0  0
 21 23  1  0     0  0
 21 27  2  0     0  0
 22 26  1  0     0  0
 24 28  2  0     0  0
 27 28  1  0     0  0
 29 34  1  0     0  0
 30 31  1  0     0  0
M  END
> <standard_type>
pIC50

> <# Confs.>
25

> <canonical_smiles>
FC1=CC(NC(CC2=CN=C(NC3=NC=NC4=C3C=C(OC)C(OCCOC)=C4)S2)=O)=CC=C1

> <standard_relation>
=

> <Publication_ID>
nan

> <predicted_activity_value>
8.045757490560675

> <actual_activity_value>
8.096910013008056

> <Compound>
4

> <standard_units>
nM

> hash
10565851915682723624

$$$$
3
XXILIB    08252103493D 0   0.00000     0.00000

 34 37  0     1  0            999 V2000
    3.9192   -0.4544    0.7871 S   0  0  0  0  0  2           0  0  0
    5.3099    0.3546    9.6529 F   0  0  0  0  0  1           0  0  0
   -2.9470   -0.2996   -4.7704 O   0  0  0  0  0  2           0  0  0
   -0.2003   -0.2152   -4.8581 O   0  0  0  0  0  2           0  0  0
    6.5822    0.4407    3.2469 O   0  0  0  0  0  2           0  0  0
   -6.3815   -0.5046   -5.9297 O   0  0  0  0  0  2           0  0  0
    1.7953   -1.1817    2.0413 N   0  0  0  0  0  3           0  0  0
   -0.6605   -0.0000    1.1845 N   0  0  0  0  0  3           0  0  0
   -2.7579   -0.0594    0.0228 N   0  0  0  0  0  3           0  0  0
    1.4109   -0.0000   -0.0000 N   0  0  0  0  0  3           0  0  0
    5.5857   -0.7016    5.0122 N   0  0  0  0  0  3           0  0  0
    2.1978   -0.5509    0.9542 C   0  0  0  0  0  4           0  0  0
    4.1207   -1.3110    2.2561 C   0  0  0  0  0  4           0  0  0
    5.7305    0.6850    8.4237 C   0  0  0  0  0  4           0  0  0
   -2.2654   -0.1910   -3.5908 C   0  0  0  0  0  4           0  0  0
   -0.8735   -0.1473   -3.6711 C   0  0  0  0  0  4           0  0  0
   -1.9994   -0.0215    1.1280 C   0  0  0  0  0  4           0  0  0
    0.0000    0.0000    0.0000 C   0  0  0  0  0  4           0  0  0
   -2.1115   -0.0848   -1.1499 C   0  0  0  0  0  4           0  0  0
    2.8804   -1.6141    2.7759 C   0  0  0  0  0  4           0  0  0
    5.8888    0.1765    6.0701 C   0  0  0  0  0  4           0  0  0
   -0.7045   -0.0618   -1.2298 C   0  0  0  0  0  4           0  0  0
    5.4539   -0.1641    7.3549 C   0  0  0  0  0  4           0  0  0
    6.4346    1.8695    8.2371 C   0  0  0  0  0  4           0  0  0
   -2.8623   -0.1491   -2.3248 C   0  0  0  0  0  4           0  0  0
   -0.1013   -0.1072   -2.5086 C   0  0  0  0  0  4           0  0  0
    6.6024    1.3670    5.8757 C   0  0  0  0  0  4           0  0  0
    6.8725    2.2087    6.9589 C   0  0  0  0  0  4           0  0  0
    5.9414   -0.5138    3.6850 C   0  0  0  0  0  4           0  0  0
   -4.3670   -0.3417   -4.6548 C   0  0  0  0  0  4           0  0  0
   -4.9640   -0.4625   -6.0451 C   0  0  0  0  0  4           0  0  0
    0.0539    1.0384   -5.4872 C   0  0  0  0  0  4           0  0  0
   -7.0085   -0.6178   -7.1999 C   0  0  0  0  0  4           0  0  0
    5.4693   -1.6353    2.7879 C   0  0  0  0  0  4           0  0  0
  1 12  1  0     0  0
  1 13  1  0     0  0
  2 14  1  0     0  0
  3 15  1  0     0  0
  3 30  1  0     0  0
  4 16  1  0     0  0
  4 32  1  0     0  0
  5 29  2  0     0  0
  6 31  1  0     0  0
  6 33  1  0     0  0
  7 12  2  0     0  0
  7 20  1  0     0  0
  8 17  1  0     0  0
  8 18  2  0     0  0
  9 17  2  0     0  0
  9 19  1  0     0  0
 10 12  1  0     0  0
 10 18  1  0     0  0
 11 21  1  0     0  0
 11 29  1  0     0  0
 13 20  2  0     0  0
 13 34  1  0     0  0
 14 23  2  0     0  0
 14 24  1  0     0  0
 15 16  1  0     0  0
 15 25  2  0     0  0
 16 26  2  0     0  0
 18 22  1  0     0  0
 19 22  2  0     0  0
 19 25  1  0     0  0
 21 23  1  0     0  0
 21 27  2  0     0  0
 22 26  1  0     0  0
 24 28  2  0     0  0
 27 28  1  0     0  0
 29 34  1  0     0  0
 30 31  1  0     0  0
M  END
> <standard_type>
pIC50

> <# Confs.>
25

> <canonical_smiles>
FC1=CC(NC(CC2=CN=C(NC3=NC=NC4=C3C=C(OC)C(OCCOC)=C4)S2)=O)=CC=C1

> <standard_relation>
=

> <Publication_ID>
nan

> <predicted_activity_value>
8.045757490560675

> <actual_activity_value>
8.096910013008056

> <Compound>
4

> <standard_units>
nM

> hash
10565851915682723624

$$$$
3
XXILIB    08252103493D 0   0.00000     0.00000

 34 37  0     1  0            999 V2000
    3.9192   -0.4544    0.7871 S   0  0  0  0  0  2           0  0  0
    9.0636    4.5356    2.4508 F   0  0  0  0  0  1           0  0  0
   -2.9470   -0.2996   -4.7704 O   0  0  0  0  0  2           0  0  0
   -0.2003   -0.2152   -4.8581 O   0  0  0  0  0  2           0  0  0
    5.7054   -0.5065    4.8925 O   0  0  0  0  0  2           0  0  0
   -5.8335    1.3612   -6.2167 O   0  0  0  0  0  2           0  0  0
    1.7953   -1.1817    2.0413 N   0  0  0  0  0  3           0  0  0
   -0.6605    0.0000    1.1845 N   0  0  0  0  0  3           0  0  0
   -2.7579   -0.0594    0.0228 N   0  0  0  0  0  3           0  0  0
    1.4109   -0.0000   -0.0000 N   0  0  0  0  0  3           0  0  0
    6.6325    0.4710    2.9954 N   0  0  0  0  0  3           0  0  0
    2.1978   -0.5509    0.9542 C   0  0  0  0  0  4           0  0  0
    4.1207   -1.3110    2.2561 C   0  0  0  0  0  4           0  0  0
    8.4227    3.6815    3.2610 C   0  0  0  0  0  4           0  0  0
   -2.2654   -0.1910   -3.5908 C   0  0  0  0  0  4           0  0  0
   -0.8735   -0.1473   -3.6711 C   0  0  0  0  0  4           0  0  0
   -1.9994   -0.0215    1.1280 C   0  0  0  0  0  4           0  0  0
    0.0000    0.0000    0.0000 C   0  0  0  0  0  4           0  0  0
   -2.1115   -0.0848   -1.1499 C   0  0  0  0  0  4           0  0  0
    2.8804   -1.6141    2.7759 C   0  0  0  0  0  4           0  0  0
    7.1874    1.6313    3.5680 C   0  0  0  0  0  4           0  0  0
   -0.7045   -0.0618   -1.2298 C   0  0  0  0  0  4           0  0  0
    7.8558    2.5268    2.7269 C   0  0  0  0  0  4           0  0  0
    8.3354    3.9627    4.6201 C   0  0  0  0  0  4           0  0  0
   -2.8623   -0.1491   -2.3248 C   0  0  0  0  0  4           0  0  0
   -0.1013   -0.1072   -2.5086 C   0  0  0  0  0  4           0  0  0
    7.0925    1.9107    4.9381 C   0  0  0  0  0  4           0  0  0
    7.6664    3.0743    5.4590 C   0  0  0  0  0  4           0  0  0
    5.9414   -0.5138    3.6850 C   0  0  0  0  0  4           0  0  0
   -4.2404    0.2990   -4.7869 C   0  0  0  0  0  4           0  0  0
   -4.5423    0.7636   -6.2001 C   0  0  0  0  0  4           0  0  0
    0.1459   -1.5294   -5.2881 C   0  0  0  0  0  4           0  0  0
   -6.1826    1.8211   -7.5151 C   0  0  0  0  0  4           0  0  0
    5.4693   -1.6353    2.7879 C   0  0  0  0  0  4           0  0  0
  1 12  1  0     0  0
  1 13  1  0     0  0
  2 14  1  0     0  0
  3 15  1  0     0  0
  3 30  1  0     0  0
  4 16  1  0     0  0
  4 32  1  0     0  0
  5 29  2  0     0  0
  6 31  1  0     0  0
  6 33  1  0     0  0
  7 12  2  0     0  0
  7 20  1  0     0  0
  8 17  1  0     0  0
  8 18  2  0     0  0
  9 17  2  0     0  0
  9 19  1  0     0  0
 10 12  1  0     0  0
 10 18  1  0     0  0
 11 21  1  0     0  0
 11 29  1  0     0  0
 13 20  2  0     0  0
 13 34  1  0     0  0
 14 23  2  0     0  0
 14 24  1  0     0  0
 15 16  1  0     0  0
 15 25  2  0     0  0
 16 26  2  0     0  0
 18 22  1  0     0  0
 19 22  2  0     0  0
 19 25  1  0     0  0
 21 23  1  0     0  0
 21 27  2  0     0  0
 22 26  1  0     0  0
 24 28  2  0     0  0
 27 28  1  0     0  0
 29 34  1  0     0  0
 30 31  1  0     0  0
M  END
> <standard_type>
pIC50

> <# Confs.>
25

> <canonical_smiles>
FC1=CC(NC(CC2=CN=C(NC3=NC=NC4=C3C=C(OC)C(OCCOC)=C4)S2)=O)=CC=C1

> <standard_relation>
=

> <Publication_ID>
nan

> <predicted_activity_value>
8.045757490560675

> <actual_activity_value>
8.096910013008056

> <Compound>
4

> <standard_units>
nM

> hash
10565851915682723624

$$$$
3
XXILIB    08252103493D 0   0.00000     0.00000

 34 37  0     1  0            999 V2000
    3.9192   -0.4544    0.7871 S   0  0  0  0  0  2           0  0  0
    6.8261   -4.9025   -3.4247 F   0  0  0  0  0  1           0  0  0
   -2.9470   -0.2996   -4.7704 O   0  0  0  0  0  2           0  0  0
   -0.2003   -0.2152   -4.8581 O   0  0  0  0  0  2           0  0  0
    6.1740   -3.9196    2.9995 O   0  0  0  0  0  2           0  0  0
   -6.3815   -0.5046   -5.9297 O   0  0  0  0  0  2           0  0  0
    1.7953   -1.1817    2.0413 N   0  0  0  0  0  3           0  0  0
   -0.6605   -0.0000    1.1845 N   0  0  0  0  0  3           0  0  0
   -2.7579   -0.0594    0.0228 N   0  0  0  0  0  3           0  0  0
    1.4109    0.0000    0.0000 N   0  0  0  0  0  3           0  0  0
    6.0011   -3.0013    0.8686 N   0  0  0  0  0  3           0  0  0
    2.1978   -0.5509    0.9542 C   0  0  0  0  0  4           0  0  0
    4.1207   -1.3110    2.2561 C   0  0  0  0  0  4           0  0  0
    6.7954   -5.0467   -2.0924 C   0  0  0  0  0  4           0  0  0
   -2.2654   -0.1910   -3.5908 C   0  0  0  0  0  4           0  0  0
   -0.8735   -0.1473   -3.6711 C   0  0  0  0  0  4           0  0  0
   -1.9994   -0.0215    1.1280 C   0  0  0  0  0  4           0  0  0
    0.0000    0.0000    0.0000 C   0  0  0  0  0  4           0  0  0
   -2.1115   -0.0848   -1.1499 C   0  0  0  0  0  4           0  0  0
    2.8804   -1.6141    2.7759 C   0  0  0  0  0  4           0  0  0
    6.3882   -4.1118    0.0946 C   0  0  0  0  0  4           0  0  0
   -0.7045   -0.0618   -1.2298 C   0  0  0  0  0  4           0  0  0
    6.4235   -3.9664   -1.2959 C   0  0  0  0  0  4           0  0  0
    7.1346   -6.2720   -1.5291 C   0  0  0  0  0  4           0  0  0
   -2.8623   -0.1491   -2.3248 C   0  0  0  0  0  4           0  0  0
   -0.1013   -0.1072   -2.5086 C   0  0  0  0  0  4           0  0  0
    6.7326   -5.3429    0.6691 C   0  0  0  0  0  4           0  0  0
    7.1042   -6.4178   -0.1440 C   0  0  0  0  0  4           0  0  0
    5.9139   -2.9772    2.2524 C   0  0  0  0  0  4           0  0  0
   -4.3670   -0.3417   -4.6548 C   0  0  0  0  0  4           0  0  0
   -4.9640   -0.4625   -6.0451 C   0  0  0  0  0  4           0  0  0
    0.1459   -1.5294   -5.2881 C   0  0  0  0  0  4           0  0  0
   -7.0085   -0.6178   -7.1999 C   0  0  0  0  0  4           0  0  0
    5.4693   -1.6353    2.7879 C   0  0  0  0  0  4           0  0  0
  1 12  1  0     0  0
  1 13  1  0     0  0
  2 14  1  0     0  0
  3 15  1  0     0  0
  3 30  1  0     0  0
  4 16  1  0     0  0
  4 32  1  0     0  0
  5 29  2  0     0  0
  6 31  1  0     0  0
  6 33  1  0     0  0
  7 12  2  0     0  0
  7 20  1  0     0  0
  8 17  1  0     0  0
  8 18  2  0     0  0
  9 17  2  0     0  0
  9 19  1  0     0  0
 10 12  1  0     0  0
 10 18  1  0     0  0
 11 21  1  0     0  0
 11 29  1  0     0  0
 13 20  2  0     0  0
 13 34  1  0     0  0
 14 23  2  0     0  0
 14 24  1  0     0  0
 15 16  1  0     0  0
 15 25  2  0     0  0
 16 26  2  0     0  0
 18 22  1  0     0  0
 19 22  2  0     0  0
 19 25  1  0     0  0
 21 23  1  0     0  0
 21 27  2  0     0  0
 22 26  1  0     0  0
 24 28  2  0     0  0
 27 28  1  0     0  0
 29 34  1  0     0  0
 30 31  1  0     0  0
M  END
> <standard_type>
pIC50

> <# Confs.>
25

> <canonical_smiles>
FC1=CC(NC(CC2=CN=C(NC3=NC=NC4=C3C=C(OC)C(OCCOC)=C4)S2)=O)=CC=C1

> <standard_relation>
=

> <Publication_ID>
nan

> <predicted_activity_value>
8.045757490560675

> <actual_activity_value>
8.096910013008056

> <Compound>
4

> <standard_units>
nM

> hash
10565851915682723624

$$$$
3
XXILIB    08252103493D 0   0.00000     0.00000

 34 37  0     1  0            999 V2000
    3.9192   -0.4544    0.7871 S   0  0  0  0  0  2           0  0  0
    5.1340   -8.5900    4.4104 F   0  0  0  0  0  1           0  0  0
   -2.9470   -0.2996   -4.7704 O   0  0  0  0  0  2           0  0  0
   -0.2003   -0.2152   -4.8581 O   0  0  0  0  0  2           0  0  0
    6.5430   -3.0791    1.1999 O   0  0  0  0  0  2           0  0  0
   -6.3815   -0.5046   -5.9297 O   0  0  0  0  0  2           0  0  0
    1.7953   -1.1817    2.0413 N   0  0  0  0  0  3           0  0  0
   -0.6605   -0.0000    1.1845 N   0  0  0  0  0  3           0  0  0
   -2.7579   -0.0594    0.0228 N   0  0  0  0  0  3           0  0  0
    1.4109   -0.0000    0.0000 N   0  0  0  0  0  3           0  0  0
    5.5233   -4.0344    3.0605 N   0  0  0  0  0  3           0  0  0
    2.1978   -0.5509    0.9542 C   0  0  0  0  0  4           0  0  0
    4.1207   -1.3110    2.2561 C   0  0  0  0  0  4           0  0  0
    5.5838   -7.6899    3.5248 C   0  0  0  0  0  4           0  0  0
   -2.2654   -0.1910   -3.5908 C   0  0  0  0  0  4           0  0  0
   -0.8735   -0.1473   -3.6711 C   0  0  0  0  0  4           0  0  0
   -1.9994   -0.0215    1.1280 C   0  0  0  0  0  4           0  0  0
    0.0000    0.0000    0.0000 C   0  0  0  0  0  4           0  0  0
   -2.1115   -0.0848   -1.1499 C   0  0  0  0  0  4           0  0  0
    2.8804   -1.6141    2.7759 C   0  0  0  0  0  4           0  0  0
    5.7952   -5.3935    2.8141 C   0  0  0  0  0  4           0  0  0
   -0.7045   -0.0618   -1.2298 C   0  0  0  0  0  4           0  0  0
    5.3269   -6.3371    3.7340 C   0  0  0  0  0  4           0  0  0
    6.2993   -8.1222    2.4135 C   0  0  0  0  0  4           0  0  0
   -2.8623   -0.1491   -2.3248 C   0  0  0  0  0  4           0  0  0
   -0.1013   -0.1072   -2.5086 C   0  0  0  0  0  4           0  0  0
    6.5136   -5.8229    1.6899 C   0  0  0  0  0  4           0  0  0
    6.7630   -7.1845    1.4937 C   0  0  0  0  0  4           0  0  0
    5.9139   -2.9772    2.2524 C   0  0  0  0  0  4           0  0  0
   -4.3670   -0.3417   -4.6548 C   0  0  0  0  0  4           0  0  0
   -4.9640   -0.4625   -6.0451 C   0  0  0  0  0  4           0  0  0
    0.1459   -1.5294   -5.2881 C   0  0  0  0  0  4           0  0  0
   -7.0085   -0.6178   -7.1999 C   0  0  0  0  0  4           0  0  0
    5.4693   -1.6353    2.7879 C   0  0  0  0  0  4           0  0  0
  1 12  1  0     0  0
  1 13  1  0     0  0
  2 14  1  0     0  0
  3 15  1  0     0  0
  3 30  1  0     0  0
  4 16  1  0     0  0
  4 32  1  0     0  0
  5 29  2  0     0  0
  6 31  1  0     0  0
  6 33  1  0     0  0
  7 12  2  0     0  0
  7 20  1  0     0  0
  8 17  1  0     0  0
  8 18  2  0     0  0
  9 17  2  0     0  0
  9 19  1  0     0  0
 10 12  1  0     0  0
 10 18  1  0     0  0
 11 21  1  0     0  0
 11 29  1  0     0  0
 13 20  2  0     0  0
 13 34  1  0     0  0
 14 23  2  0     0  0
 14 24  1  0     0  0
 15 16  1  0     0  0
 15 25  2  0     0  0
 16 26  2  0     0  0
 18 22  1  0     0  0
 19 22  2  0     0  0
 19 25  1  0     0  0
 21 23  1  0     0  0
 21 27  2  0     0  0
 22 26  1  0     0  0
 24 28  2  0     0  0
 27 28  1  0     0  0
 29 34  1  0     0  0
 30 31  1  0     0  0
M  END
> <standard_type>
pIC50

> <# Confs.>
25

> <canonical_smiles>
FC1=CC(NC(CC2=CN=C(NC3=NC=NC4=C3C=C(OC)C(OCCOC)=C4)S2)=O)=CC=C1

> <standard_relation>
=

> <Publication_ID>
nan

> <predicted_activity_value>
8.045757490560675

> <actual_activity_value>
8.096910013008056

> <Compound>
4

> <standard_units>
nM

> hash
10565851915682723624

$$$$
3
XXILIB    08252103493D 0   0.00000     0.00000

 34 37  0     1  0            999 V2000
    3.9192   -0.4544    0.7871 S   0  0  0  0  0  2           0  0  0
    6.9779    3.7398    7.2539 F   0  0  0  0  0  1           0  0  0
   -2.9470   -0.2996   -4.7704 O   0  0  0  0  0  2           0  0  0
   -0.2003   -0.2152   -4.8581 O   0  0  0  0  0  2           0  0  0
    5.2173   -2.1745    5.1128 O   0  0  0  0  0  2           0  0  0
   -5.7018   -2.3488   -5.9510 O   0  0  0  0  0  2           0  0  0
    1.7953   -1.1817    2.0413 N   0  0  0  0  0  3           0  0  0
   -0.6605    0.0000    1.1845 N   0  0  0  0  0  3           0  0  0
   -2.7579   -0.0594    0.0228 N   0  0  0  0  0  3           0  0  0
    1.4109    0.0000    0.0000 N   0  0  0  0  0  3           0  0  0
    5.9047   -0.0275    4.5366 N   0  0  0  0  0  3           0  0  0
    2.1978   -0.5509    0.9542 C   0  0  0  0  0  4           0  0  0
    4.1207   -1.3110    2.2561 C   0  0  0  0  0  4           0  0  0
    6.5879    2.4602    7.1686 C   0  0  0  0  0  4           0  0  0
   -2.2654   -0.1910   -3.5908 C   0  0  0  0  0  4           0  0  0
   -0.8735   -0.1473   -3.6711 C   0  0  0  0  0  4           0  0  0
   -1.9994   -0.0215    1.1280 C   0  0  0  0  0  4           0  0  0
    0.0000   -0.0000    0.0000 C   0  0  0  0  0  4           0  0  0
   -2.1115   -0.0848   -1.1499 C   0  0  0  0  0  4           0  0  0
    2.8804   -1.6141    2.7759 C   0  0  0  0  0  4           0  0  0
    6.0361    0.5368    5.8197 C   0  0  0  0  0  4           0  0  0
   -0.7045   -0.0618   -1.2298 C   0  0  0  0  0  4           0  0  0
    6.4412    1.8720    5.9146 C   0  0  0  0  0  4           0  0  0
    6.3372    1.7424    8.3329 C   0  0  0  0  0  4           0  0  0
   -2.8623   -0.1491   -2.3248 C   0  0  0  0  0  4           0  0  0
   -0.1013   -0.1072   -2.5086 C   0  0  0  0  0  4           0  0  0
    5.7780   -0.1911    6.9893 C   0  0  0  0  0  4           0  0  0
    5.9294    0.4136    8.2407 C   0  0  0  0  0  4           0  0  0
    5.5149   -1.3309    4.2680 C   0  0  0  0  0  4           0  0  0
   -4.1948   -0.9842   -4.6951 C   0  0  0  0  0  4           0  0  0
   -4.4561   -1.6654   -6.0262 C   0  0  0  0  0  4           0  0  0
    0.0539    1.0384   -5.4872 C   0  0  0  0  0  4           0  0  0
   -6.0110   -3.0123   -7.1690 C   0  0  0  0  0  4           0  0  0
    5.4693   -1.6353    2.7879 C   0  0  0  0  0  4           0  0  0
  1 12  1  0     0  0
  1 13  1  0     0  0
  2 14  1  0     0  0
  3 15  1  0     0  0
  3 30  1  0     0  0
  4 16  1  0     0  0
  4 32  1  0     0  0
  5 29  2  0     0  0
  6 31  1  0     0  0
  6 33  1  0     0  0
  7 12  2  0     0  0
  7 20  1  0     0  0
  8 17  1  0     0  0
  8 18  2  0     0  0
  9 17  2  0     0  0
  9 19  1  0     0  0
 10 12  1  0     0  0
 10 18  1  0     0  0
 11 21  1  0     0  0
 11 29  1  0     0  0
 13 20  2  0     0  0
 13 34  1  0     0  0
 14 23  2  0     0  0
 14 24  1  0     0  0
 15 16  1  0     0  0
 15 25  2  0     0  0
 16 26  2  0     0  0
 18 22  1  0     0  0
 19 22  2  0     0  0
 19 25  1  0     0  0
 21 23  1  0     0  0
 21 27  2  0     0  0
 22 26  1  0     0  0
 24 28  2  0     0  0
 27 28  1  0     0  0
 29 34  1  0     0  0
 30 31  1  0     0  0
M  END
> <standard_type>
pIC50

> <# Confs.>
25

> <canonical_smiles>
FC1=CC(NC(CC2=CN=C(NC3=NC=NC4=C3C=C(OC)C(OCCOC)=C4)S2)=O)=CC=C1

> <standard_relation>
=

> <Publication_ID>
nan

> <predicted_activity_value>
8.045757490560675

> <actual_activity_value>
8.096910013008056

> <Compound>
4

> <standard_units>
nM

> hash
10565851915682723624

$$$$
3
XXILIB    08252103493D 0   0.00000     0.00000

 34 37  0     1  0            999 V2000
    3.9192   -0.4544    0.7871 S   0  0  0  0  0  2           0  0  0
    9.0398   -4.4456   -2.7316 F   0  0  0  0  0  1           0  0  0
   -2.9470   -0.2996   -4.7704 O   0  0  0  0  0  2           0  0  0
   -0.2003   -0.2152   -4.8581 O   0  0  0  0  0  2           0  0  0
    5.6662   -4.0264    2.8455 O   0  0  0  0  0  2           0  0  0
   -5.8335    1.3612   -6.2167 O   0  0  0  0  0  2           0  0  0
    1.7953   -1.1817    2.0413 N   0  0  0  0  0  3           0  0  0
   -0.6605    0.0000    1.1845 N   0  0  0  0  0  3           0  0  0
   -2.7579   -0.0594    0.0228 N   0  0  0  0  0  3           0  0  0
    1.4109   -0.0000    0.0000 N   0  0  0  0  0  3           0  0  0
    6.6206   -2.8739    1.0637 N   0  0  0  0  0  3           0  0  0
    2.1978   -0.5509    0.9542 C   0  0  0  0  0  4           0  0  0
    4.1207   -1.3110    2.2561 C   0  0  0  0  0  4           0  0  0
    8.3824   -4.7190   -1.5959 C   0  0  0  0  0  4           0  0  0
   -2.2654   -0.1910   -3.5908 C   0  0  0  0  0  4           0  0  0
   -0.8735   -0.1473   -3.6711 C   0  0  0  0  0  4           0  0  0
   -1.9994   -0.0215    1.1280 C   0  0  0  0  0  4           0  0  0
    0.0000    0.0000    0.0000 C   0  0  0  0  0  4           0  0  0
   -2.1115   -0.0848   -1.1499 C   0  0  0  0  0  4           0  0  0
    2.8804   -1.6141    2.7759 C   0  0  0  0  0  4           0  0  0
    7.1567   -3.9538    0.3367 C   0  0  0  0  0  4           0  0  0
   -0.7045   -0.0618   -1.2298 C   0  0  0  0  0  4           0  0  0
    7.8450   -3.6741   -0.8482 C   0  0  0  0  0  4           0  0  0
    8.2480   -6.0406   -1.1846 C   0  0  0  0  0  4           0  0  0
   -2.8623   -0.1491   -2.3248 C   0  0  0  0  0  4           0  0  0
   -0.1013   -0.1072   -2.5086 C   0  0  0  0  0  4           0  0  0
    7.0210   -5.2833    0.7590 C   0  0  0  0  0  4           0  0  0
    7.5666   -6.3212   -0.0025 C   0  0  0  0  0  4           0  0  0
    5.9139   -2.9772    2.2524 C   0  0  0  0  0  4           0  0  0
   -4.2404    0.2990   -4.7869 C   0  0  0  0  0  4           0  0  0
   -4.5423    0.7636   -6.2001 C   0  0  0  0  0  4           0  0  0
    0.0539    1.0384   -5.4872 C   0  0  0  0  0  4           0  0  0
   -6.1826    1.8211   -7.5151 C   0  0  0  0  0  4           0  0  0
    5.4693   -1.6353    2.7879 C   0  0  0  0  0  4           0  0  0
  1 12  1  0     0  0
  1 13  1  0     0  0
  2 14  1  0     0  0
  3 15  1  0     0  0
  3 30  1  0     0  0
  4 16  1  0     0  0
  4 32  1  0     0  0
  5 29  2  0     0  0
  6 31  1  0     0  0
  6 33  1  0     0  0
  7 12  2  0     0  0
  7 20  1  0     0  0
  8 17  1  0     0  0
  8 18  2  0     0  0
  9 17  2  0     0  0
  9 19  1  0     0  0
 10 12  1  0     0  0
 10 18  1  0     0  0
 11 21  1  0     0  0
 11 29  1  0     0  0
 13 20  2  0     0  0
 13 34  1  0     0  0
 14 23  2  0     0  0
 14 24  1  0     0  0
 15 16  1  0     0  0
 15 25  2  0     0  0
 16 26  2  0     0  0
 18 22  1  0     0  0
 19 22  2  0     0  0
 19 25  1  0     0  0
 21 23  1  0     0  0
 21 27  2  0     0  0
 22 26  1  0     0  0
 24 28  2  0     0  0
 27 28  1  0     0  0
 29 34  1  0     0  0
 30 31  1  0     0  0
M  END
> <standard_type>
pIC50

> <# Confs.>
25

> <canonical_smiles>
FC1=CC(NC(CC2=CN=C(NC3=NC=NC4=C3C=C(OC)C(OCCOC)=C4)S2)=O)=CC=C1

> <standard_relation>
=

> <Publication_ID>
nan

> <predicted_activity_value>
8.045757490560675

> <actual_activity_value>
8.096910013008056

> <Compound>
4

> <standard_units>
nM

> hash
10565851915682723624

$$$$
3
XXILIB    08252103493D 0   0.00000     0.00000

 34 37  0     1  0            999 V2000
    3.9192    0.4544    0.7871 S   0  0  0  0  0  2           0  0  0
   10.7682    4.4287   -1.0647 F   0  0  0  0  0  1           0  0  0
   -2.9470   -0.2996   -4.7704 O   0  0  0  0  0  2           0  0  0
   -0.2003   -0.2152   -4.8581 O   0  0  0  0  0  2           0  0  0
    5.3184    3.9725    2.5066 O   0  0  0  0  0  2           0  0  0
   -6.3815   -0.5046   -5.9297 O   0  0  0  0  0  2           0  0  0
    1.7953    1.1769    2.0440 N   0  0  0  0  0  3           0  0  0
   -0.6605   -0.0000    1.1845 N   0  0  0  0  0  3           0  0  0
   -2.7579   -0.0594    0.0228 N   0  0  0  0  0  3           0  0  0
    1.4109    0.0000    0.0000 N   0  0  0  0  0  3           0  0  0
    7.1104    2.8398    1.5475 N   0  0  0  0  0  3           0  0  0
    2.1978    0.5509    0.9542 C   0  0  0  0  0  4           0  0  0
    4.1207    1.2983    2.2634 C   0  0  0  0  0  4           0  0  0
    9.6444    4.6926   -0.3834 C   0  0  0  0  0  4           0  0  0
   -2.2654   -0.1910   -3.5908 C   0  0  0  0  0  4           0  0  0
   -0.8735   -0.1473   -3.6711 C   0  0  0  0  0  4           0  0  0
   -1.9994   -0.0215    1.1280 C   0  0  0  0  0  4           0  0  0
    0.0000    0.0000    0.0000 C   0  0  0  0  0  4           0  0  0
   -2.1115   -0.0848   -1.1499 C   0  0  0  0  0  4           0  0  0
    2.8804    1.5970    2.7858 C   0  0  0  0  0  4           0  0  0
    7.7803    3.9183    0.9391 C   0  0  0  0  0  4           0  0  0
   -0.7045   -0.0618   -1.2298 C   0  0  0  0  0  4           0  0  0
    8.9525    3.6484    0.2255 C   0  0  0  0  0  4           0  0  0
    9.1895    6.0038   -0.2958 C   0  0  0  0  0  4           0  0  0
   -2.8623   -0.1491   -2.3248 C   0  0  0  0  0  4           0  0  0
   -0.1013   -0.1072   -2.5086 C   0  0  0  0  0  4           0  0  0
    7.3142    5.2371    1.0279 C   0  0  0  0  0  4           0  0  0
    8.0198    6.2743    0.4107 C   0  0  0  0  0  4           0  0  0
    5.9414    2.9344    2.2875 C   0  0  0  0  0  4           0  0  0
   -4.3670   -0.3417   -4.6548 C   0  0  0  0  0  4           0  0  0
   -4.9640   -0.4625   -6.0451 C   0  0  0  0  0  4           0  0  0
    0.0539    1.0384   -5.4872 C   0  0  0  0  0  4           0  0  0
   -7.0085   -0.6178   -7.1999 C   0  0  0  0  0  4           0  0  0
    5.4693    1.5968    2.8102 C   0  0  0  0  0  4           0  0  0
  1 12  1  0     0  0
  1 13  1  0     0  0
  2 14  1  0     0  0
  3 15  1  0     0  0
  3 30  1  0     0  0
  4 16  1  0     0  0
  4 32  1  0     0  0
  5 29  2  0     0  0
  6 31  1  0     0  0
  6 33  1  0     0  0
  7 12  2  0     0  0
  7 20  1  0     0  0
  8 17  1  0     0  0
  8 18  2  0     0  0
  9 17  2  0     0  0
  9 19  1  0     0  0
 10 12  1  0     0  0
 10 18  1  0     0  0
 11 21  1  0     0  0
 11 29  1  0     0  0
 13 20  2  0     0  0
 13 34  1  0     0  0
 14 23  2  0     0  0
 14 24  1  0     0  0
 15 16  1  0     0  0
 15 25  2  0     0  0
 16 26  2  0     0  0
 18 22  1  0     0  0
 19 22  2  0     0  0
 19 25  1  0     0  0
 21 23  1  0     0  0
 21 27  2  0     0  0
 22 26  1  0     0  0
 24 28  2  0     0  0
 27 28  1  0     0  0
 29 34  1  0     0  0
 30 31  1  0     0  0
M  END
> <standard_type>
pIC50

> <# Confs.>
25

> <canonical_smiles>
FC1=CC(NC(CC2=CN=C(NC3=NC=NC4=C3C=C(OC)C(OCCOC)=C4)S2)=O)=CC=C1

> <standard_relation>
=

> <Publication_ID>
nan

> <predicted_activity_value>
8.045757490560675

> <actual_activity_value>
8.096910013008056

> <Compound>
4

> <standard_units>
nM

> hash
10565851915682723624

$$$$
3
XXILIB    08252103493D 0   0.00000     0.00000

 34 37  0     1  0            999 V2000
    3.9192    0.4544    0.7871 S   0  0  0  0  0  2           0  0  0
    6.8562    4.9073   -3.3728 F   0  0  0  0  0  1           0  0  0
   -2.9470   -0.2996   -4.7704 O   0  0  0  0  0  2           0  0  0
   -0.2003   -0.2152   -4.8581 O   0  0  0  0  0  2           0  0  0
    6.2098    3.8676    3.0431 O   0  0  0  0  0  2           0  0  0
   -6.3815   -0.5046   -5.9297 O   0  0  0  0  0  2           0  0  0
    1.7953    1.1769    2.0440 N   0  0  0  0  0  3           0  0  0
   -0.6605   -0.0000    1.1845 N   0  0  0  0  0  3           0  0  0
   -2.7579   -0.0594    0.0228 N   0  0  0  0  0  3           0  0  0
    1.4109    0.0000    0.0000 N   0  0  0  0  0  3           0  0  0
    6.0143    2.9749    0.9032 N   0  0  0  0  0  3           0  0  0
    2.1978    0.5509    0.9542 C   0  0  0  0  0  4           0  0  0
    4.1207    1.2983    2.2634 C   0  0  0  0  0  4           0  0  0
    6.8403    5.0353   -2.0386 C   0  0  0  0  0  4           0  0  0
   -2.2654   -0.1910   -3.5908 C   0  0  0  0  0  4           0  0  0
   -0.8735   -0.1473   -3.6711 C   0  0  0  0  0  4           0  0  0
   -1.9994   -0.0215    1.1280 C   0  0  0  0  0  4           0  0  0
    0.0000    0.0000    0.0000 C   0  0  0  0  0  4           0  0  0
   -2.1115   -0.0848   -1.1499 C   0  0  0  0  0  4           0  0  0
    2.8804    1.5970    2.7858 C   0  0  0  0  0  4           0  0  0
    6.4205    4.0858    0.1398 C   0  0  0  0  0  4           0  0  0
   -0.7045   -0.0618   -1.2298 C   0  0  0  0  0  4           0  0  0
    6.4374    3.9583   -1.2528 C   0  0  0  0  0  4           0  0  0
    7.2268    6.2405   -1.4625 C   0  0  0  0  0  4           0  0  0
   -2.8623   -0.1491   -2.3248 C   0  0  0  0  0  4           0  0  0
   -0.1013   -0.1072   -2.5086 C   0  0  0  0  0  4           0  0  0
    6.8051    5.2990    0.7267 C   0  0  0  0  0  4           0  0  0
    7.2066    6.3712   -0.0757 C   0  0  0  0  0  4           0  0  0
    5.9414    2.9344    2.2875 C   0  0  0  0  0  4           0  0  0
   -4.3670   -0.3417   -4.6548 C   0  0  0  0  0  4           0  0  0
   -4.9640   -0.4625   -6.0451 C   0  0  0  0  0  4           0  0  0
    0.0539    1.0384   -5.4872 C   0  0  0  0  0  4           0  0  0
   -7.0085   -0.6178   -7.1999 C   0  0  0  0  0  4           0  0  0
    5.4693    1.5968    2.8102 C   0  0  0  0  0  4           0  0  0
  1 12  1  0     0  0
  1 13  1  0     0  0
  2 14  1  0     0  0
  3 15  1  0     0  0
  3 30  1  0     0  0
  4 16  1  0     0  0
  4 32  1  0     0  0
  5 29  2  0     0  0
  6 31  1  0     0  0
  6 33  1  0     0  0
  7 12  2  0     0  0
  7 20  1  0     0  0
  8 17  1  0     0  0
  8 18  2  0     0  0
  9 17  2  0     0  0
  9 19  1  0     0  0
 10 12  1  0     0  0
 10 18  1  0     0  0
 11 21  1  0     0  0
 11 29  1  0     0  0
 13 20  2  0     0  0
 13 34  1  0     0  0
 14 23  2  0     0  0
 14 24  1  0     0  0
 15 16  1  0     0  0
 15 25  2  0     0  0
 16 26  2  0     0  0
 18 22  1  0     0  0
 19 22  2  0     0  0
 19 25  1  0     0  0
 21 23  1  0     0  0
 21 27  2  0     0  0
 22 26  1  0     0  0
 24 28  2  0     0  0
 27 28  1  0     0  0
 29 34  1  0     0  0
 30 31  1  0     0  0
M  END
> <standard_type>
pIC50

> <# Confs.>
25

> <canonical_smiles>
FC1=CC(NC(CC2=CN=C(NC3=NC=NC4=C3C=C(OC)C(OCCOC)=C4)S2)=O)=CC=C1

> <standard_relation>
=

> <Publication_ID>
nan

> <predicted_activity_value>
8.045757490560675

> <actual_activity_value>
8.096910013008056

> <Compound>
4

> <standard_units>
nM

> hash
10565851915682723624

$$$$
3
XXILIB    08252103493D 0   0.00000     0.00000

 34 37  0     1  0            999 V2000
    3.9192    0.4544    0.7871 S   0  0  0  0  0  2           0  0  0
    5.1340   -0.4754    9.6444 F   0  0  0  0  0  1           0  0  0
   -2.9470   -0.2996   -4.7704 O   0  0  0  0  0  2           0  0  0
   -0.2003   -0.2152   -4.8581 O   0  0  0  0  0  2           0  0  0
    6.5430   -0.5004    3.2665 O   0  0  0  0  0  2           0  0  0
   -6.3815   -0.5046   -5.9297 O   0  0  0  0  0  2           0  0  0
    1.7953    1.1769    2.0440 N   0  0  0  0  0  3           0  0  0
   -0.6605   -0.0000    1.1845 N   0  0  0  0  0  3           0  0  0
   -2.7579   -0.0594    0.0228 N   0  0  0  0  0  3           0  0  0
    1.4109    0.0000    0.0000 N   0  0  0  0  0  3           0  0  0
    5.5233    0.6333    5.0241 N   0  0  0  0  0  3           0  0  0
    2.1978    0.5509    0.9542 C   0  0  0  0  0  4           0  0  0
    4.1207    1.2983    2.2634 C   0  0  0  0  0  4           0  0  0
    5.5838   -0.7924    8.4221 C   0  0  0  0  0  4           0  0  0
   -2.2654   -0.1910   -3.5908 C   0  0  0  0  0  4           0  0  0
   -0.8735   -0.1473   -3.6711 C   0  0  0  0  0  4           0  0  0
   -1.9994   -0.0215    1.1280 C   0  0  0  0  0  4           0  0  0
    0.0000    0.0000    0.0000 C   0  0  0  0  0  4           0  0  0
   -2.1115   -0.0848   -1.1499 C   0  0  0  0  0  4           0  0  0
    2.8804    1.5970    2.7858 C   0  0  0  0  0  4           0  0  0
    5.7952   -0.2597    6.0780 C   0  0  0  0  0  4           0  0  0
   -0.7045   -0.0618   -1.2298 C   0  0  0  0  0  4           0  0  0
    5.3269    0.0652    7.3551 C   0  0  0  0  0  4           0  0  0
    6.2993   -1.9709    8.2408 C   0  0  0  0  0  4           0  0  0
   -2.8623   -0.1491   -2.3248 C   0  0  0  0  0  4           0  0  0
   -0.1013   -0.1072   -2.5086 C   0  0  0  0  0  4           0  0  0
    6.5136   -1.4480    5.8877 C   0  0  0  0  0  4           0  0  0
    6.7630   -2.2987    6.9688 C   0  0  0  0  0  4           0  0  0
    5.9139    0.4620    3.7046 C   0  0  0  0  0  4           0  0  0
   -4.3670   -0.3417   -4.6548 C   0  0  0  0  0  4           0  0  0
   -4.9640   -0.4625   -6.0451 C   0  0  0  0  0  4           0  0  0
    0.0539    1.0384   -5.4872 C   0  0  0  0  0  4           0  0  0
   -7.0085   -0.6178   -7.1999 C   0  0  0  0  0  4           0  0  0
    5.4693    1.5968    2.8102 C   0  0  0  0  0  4           0  0  0
  1 12  1  0     0  0
  1 13  1  0     0  0
  2 14  1  0     0  0
  3 15  1  0     0  0
  3 30  1  0     0  0
  4 16  1  0     0  0
  4 32  1  0     0  0
  5 29  2  0     0  0
  6 31  1  0     0  0
  6 33  1  0     0  0
  7 12  2  0     0  0
  7 20  1  0     0  0
  8 17  1  0     0  0
  8 18  2  0     0  0
  9 17  2  0     0  0
  9 19  1  0     0  0
 10 12  1  0     0  0
 10 18  1  0     0  0
 11 21  1  0     0  0
 11 29  1  0     0  0
 13 20  2  0     0  0
 13 34  1  0     0  0
 14 23  2  0     0  0
 14 24  1  0     0  0
 15 16  1  0     0  0
 15 25  2  0     0  0
 16 26  2  0     0  0
 18 22  1  0     0  0
 19 22  2  0     0  0
 19 25  1  0     0  0
 21 23  1  0     0  0
 21 27  2  0     0  0
 22 26  1  0     0  0
 24 28  2  0     0  0
 27 28  1  0     0  0
 29 34  1  0     0  0
 30 31  1  0     0  0
M  END
> <standard_type>
pIC50

> <# Confs.>
25

> <canonical_smiles>
FC1=CC(NC(CC2=CN=C(NC3=NC=NC4=C3C=C(OC)C(OCCOC)=C4)S2)=O)=CC=C1

> <standard_relation>
=

> <Publication_ID>
nan

> <predicted_activity_value>
8.045757490560675

> <actual_activity_value>
8.096910013008056

> <Compound>
4

> <standard_units>
nM

> hash
10565851915682723624

$$$$
3
XXILIB    08252103493D 0   0.00000     0.00000

 34 37  0     1  0            999 V2000
    3.9192   -0.4544    0.7871 S   0  0  0  0  0  2           0  0  0
    6.8562    5.3746    2.5634 F   0  0  0  0  0  1           0  0  0
   -2.9470   -0.2996   -4.7704 O   0  0  0  0  0  2           0  0  0
   -0.2003   -0.2152   -4.8581 O   0  0  0  0  0  2           0  0  0
    6.2098   -0.7016    4.8710 O   0  0  0  0  0  2           0  0  0
   -6.3815   -0.5046   -5.9297 O   0  0  0  0  0  2           0  0  0
    1.7953   -1.1817    2.0413 N   0  0  0  0  0  3           0  0  0
   -0.6605   -0.0000    1.1845 N   0  0  0  0  0  3           0  0  0
   -2.7579   -0.0594    0.0228 N   0  0  0  0  0  3           0  0  0
    1.4109    0.0000    0.0000 N   0  0  0  0  0  3           0  0  0
    6.0143    0.7052    3.0279 N   0  0  0  0  0  3           0  0  0
    2.1978   -0.5509    0.9542 C   0  0  0  0  0  4           0  0  0
    4.1207   -1.3110    2.2561 C   0  0  0  0  0  4           0  0  0
    6.8403    4.2832    3.3414 C   0  0  0  0  0  4           0  0  0
   -2.2654   -0.1910   -3.5908 C   0  0  0  0  0  4           0  0  0
   -0.8735   -0.1473   -3.6711 C   0  0  0  0  0  4           0  0  0
   -1.9994   -0.0215    1.1280 C   0  0  0  0  0  4           0  0  0
    0.0000    0.0000    0.0000 C   0  0  0  0  0  4           0  0  0
   -2.1115   -0.0848   -1.1499 C   0  0  0  0  0  4           0  0  0
    2.8804   -1.6141    2.7759 C   0  0  0  0  0  4           0  0  0
    6.4205    1.9219    3.6083 C   0  0  0  0  0  4           0  0  0
   -0.7045   -0.0618   -1.2298 C   0  0  0  0  0  4           0  0  0
    6.4374    3.0641    2.8015 C   0  0  0  0  0  4           0  0  0
    7.2268    4.3868    4.6732 C   0  0  0  0  0  4           0  0  0
   -2.8623   -0.1491   -2.3248 C   0  0  0  0  0  4           0  0  0
   -0.1013   -0.1072   -2.5086 C   0  0  0  0  0  4           0  0  0
    6.8051    2.0202    4.9524 C   0  0  0  0  0  4           0  0  0
    7.2066    3.2512    5.4798 C   0  0  0  0  0  4           0  0  0
    5.9414   -0.5138    3.6850 C   0  0  0  0  0  4           0  0  0
   -4.3670   -0.3417   -4.6548 C   0  0  0  0  0  4           0  0  0
   -4.9640   -0.4625   -6.0451 C   0  0  0  0  0  4           0  0  0
    0.1459   -1.5294   -5.2881 C   0  0  0  0  0  4           0  0  0
   -7.0085   -0.6178   -7.1999 C   0  0  0  0  0  4           0  0  0
    5.4693   -1.6353    2.7879 C   0  0  0  0  0  4           0  0  0
  1 12  1  0     0  0
  1 13  1  0     0  0
  2 14  1  0     0  0
  3 15  1  0     0  0
  3 30  1  0     0  0
  4 16  1  0     0  0
  4 32  1  0     0  0
  5 29  2  0     0  0
  6 31  1  0     0  0
  6 33  1  0     0  0
  7 12  2  0     0  0
  7 20  1  0     0  0
  8 17  1  0     0  0
  8 18  2  0     0  0
  9 17  2  0     0  0
  9 19  1  0     0  0
 10 12  1  0     0  0
 10 18  1  0     0  0
 11 21  1  0     0  0
 11 29  1  0     0  0
 13 20  2  0     0  0
 13 34  1  0     0  0
 14 23  2  0     0  0
 14 24  1  0     0  0
 15 16  1  0     0  0
 15 25  2  0     0  0
 16 26  2  0     0  0
 18 22  1  0     0  0
 19 22  2  0     0  0
 19 25  1  0     0  0
 21 23  1  0     0  0
 21 27  2  0     0  0
 22 26  1  0     0  0
 24 28  2  0     0  0
 27 28  1  0     0  0
 29 34  1  0     0  0
 30 31  1  0     0  0
M  END
> <standard_type>
pIC50

> <# Confs.>
25

> <canonical_smiles>
FC1=CC(NC(CC2=CN=C(NC3=NC=NC4=C3C=C(OC)C(OCCOC)=C4)S2)=O)=CC=C1

> <standard_relation>
=

> <Publication_ID>
nan

> <predicted_activity_value>
8.045757490560675

> <actual_activity_value>
8.096910013008056

> <Compound>
4

> <standard_units>
nM

> hash
10565851915682723624

$$$$
0
XXILIB    08252103493D 0   0.00000     0.00000

 41 44  0     1  0            999 V2000
   -1.9196    1.5925   -5.4604 P   0  0  2  0  0  5           0  0  0
    0.0199   -5.6419   11.0302 F   0  0  0  0  0  1           0  0  0
   -2.6848    0.5430   -6.2146 O   0  0  0  0  0  2           0  0  0
   -0.3544    1.2621   -5.2165 O   0  0  0  0  0  2           0  0  0
   -2.4924    1.8915   -3.9771 O   0  0  0  0  0  2           0  0  0
   -1.9278    3.0509   -6.1567 O   0  0  0  0  0  2           0  0  0
   -0.0000    0.0000    0.0000 O   0  0  0  0  0  2           0  0  0
   -3.8773   -6.3708    5.7328 O   0  0  0  0  0  2           0  0  0
   -5.1954   -3.2772    4.4872 N   0  0  0  0  0  3           0  0  0
   -4.8682   -2.0506    4.0518 N   0  0  0  0  0  3           0  0  0
    0.1114    0.0012    4.8150 N   0  0  0  0  0  3           0  0  0
   -1.9210    0.0160    6.0917 N   0  0  0  0  0  3           0  0  0
   -3.4400   -5.3288    7.7644 N   0  0  0  0  0  3           0  0  0
    1.9578   -1.1803   -3.6470 N   0  0  1  0  0  3           0  0  0
   -0.5009   -6.0553    9.8664 C   0  0  0  0  0  4           0  0  0
   -0.5887   -0.0000    1.2326 C   0  0  0  0  0  4           0  0  0
   -0.5874    0.0066    5.9620 C   0  0  0  0  0  4           0  0  0
   -0.5951    0.0024    3.6753 C   0  0  0  0  0  4           0  0  0
   -5.0979   -3.4358    5.8422 C   0  0  0  0  0  4           0  0  0
   -4.5390   -1.3936    5.1726 C   0  0  0  0  0  4           0  0  0
   -2.6279    0.0161    4.9369 C   0  0  0  0  0  4           0  0  0
   -2.2381   -5.9204    8.1970 C   0  0  0  0  0  4           0  0  0
   -2.0033    0.0066    3.6694 C   0  0  0  0  0  4           0  0  0
   -1.6929   -5.4949    9.4128 C   0  0  0  0  0  4           0  0  0
    0.1587   -7.0349    9.1319 C   0  0  0  0  0  4           0  0  0
    0.0867   -0.0000    2.4581 C   0  0  0  0  0  4           0  0  0
   -1.9800   -0.0015    1.2265 C   0  0  0  0  0  4           0  0  0
   -4.6804   -2.2139    6.3201 C   0  0  0  0  0  4           0  0  0
   -1.5797   -6.9086    7.4529 C   0  0  0  0  0  4           0  0  0
   -2.6819    0.0025    2.4298 C   0  0  0  0  0  4           0  0  0
   -0.3849   -7.4624    7.9224 C   0  0  0  0  0  4           0  0  0
   -4.1753   -5.5680    6.6164 C   0  0  0  0  0  4           0  0  0
   -0.0123    0.0949   -4.4858 C   0  0  0  0  0  4           0  0  0
    1.4278    0.0000    0.0000 C   0  0  0  0  0  4           0  0  0
    1.5053   -0.0003   -4.3886 C   0  0  0  0  0  4           0  0  0
    1.4657   -1.2091   -2.2629 C   0  0  0  0  0  4           0  0  0
    1.6230   -2.4411   -4.3233 C   0  0  0  0  0  4           0  0  0
   -4.1210    0.0303    5.1163 C   0  0  0  0  0  4           0  0  0
   -5.4184   -4.7121    6.5277 C   0  0  0  0  0  4           0  0  0
    1.9220    0.0000   -1.4413 C   0  0  0  0  0  4           0  0  0
    2.2605   -2.5267   -5.7064 C   0  0  0  0  0  4           0  0  0
  1  3  2  0     0  0
  1  4  1  0     0  0
  1  5  1  0     0  0
  1  6  1  0     0  0
  2 15  1  0     0  0
  4 33  1  0     0  0
  7 16  1  0     0  0
  7 34  1  0     0  0
  8 32  2  0     0  0
  9 10  1  0     0  0
  9 19  1  0     0  0
 10 20  2  0     0  0
 11 17  2  0     0  0
 11 18  1  0     0  0
 12 17  1  0     0  0
 12 21  2  0     0  0
 13 22  1  0     0  0
 13 32  1  0     0  0
 14 35  1  0     0  0
 14 36  1  0     0  0
 14 37  1  0     0  0
 15 24  2  0     0  0
 15 25  1  0     0  0
 16 26  2  0     0  0
 16 27  1  0     0  0
 18 23  2  0     0  0
 18 26  1  0     0  0
 19 28  2  0     0  0
 19 39  1  0     0  0
 20 28  1  0     0  0
 20 38  1  0     0  0
 21 23  1  0     0  0
 21 38  1  0     0  0
 22 24  1  0     0  0
 22 29  2  0     0  0
 23 30  1  0     0  0
 25 31  2  0     0  0
 27 30  2  0     0  0
 29 31  1  0     0  0
 32 39  1  0     0  0
 33 35  1  0     0  0
 34 40  1  0     0  0
 36 40  1  0     0  0
 37 41  1  0     0  0
M  END
> <standard_type>
pIC50

> <# Confs.>
25

> <canonical_smiles>
FC1=CC(NC(CC2=CC(CC3=NC=NC4=C3C=CC(OCCCN(CCOP(O)(O)=O)CC)=C4)=NN2)=O)=CC=C1

> <standard_relation>
=

> <Publication_ID>
Wang_2009

> <predicted_activity_value>
9.455931955649724

> <actual_activity_value>
9.522878745280337

> <Compound>
1

> <standard_units>
nM

> hash
11804495725534374177

$$$$
0
XXILIB    08252103493D 0   0.00000     0.00000

 41 44  0     1  0            999 V2000
    4.4437   -6.2519   -0.8871 P   0  0  2  0  0  5           0  0  0
    0.0199   -5.6419   11.0302 F   0  0  0  0  0  1           0  0  0
    5.9297   -6.4269   -1.0174 O   0  0  0  0  0  2           0  0  0
    3.8657   -4.8418   -1.4312 O   0  0  0  0  0  2           0  0  0
    3.8977   -6.3383    0.6335 O   0  0  0  0  0  2           0  0  0
    3.5717   -7.3763   -1.6534 O   0  0  0  0  0  2           0  0  0
   -0.0000    0.0000    0.0000 O   0  0  0  0  0  2           0  0  0
   -3.8773   -6.3708    5.7328 O   0  0  0  0  0  2           0  0  0
   -5.1954   -3.2772    4.4872 N   0  0  0  0  0  3           0  0  0
   -4.8682   -2.0506    4.0518 N   0  0  0  0  0  3           0  0  0
    0.1114    0.0012    4.8150 N   0  0  0  0  0  3           0  0  0
   -1.9210    0.0160    6.0917 N   0  0  0  0  0  3           0  0  0
   -3.4400   -5.3288    7.7644 N   0  0  0  0  0  3           0  0  0
    4.0771   -1.1656   -0.9667 N   0  0  1  0  0  3           0  0  0
   -0.5009   -6.0553    9.8664 C   0  0  0  0  0  4           0  0  0
   -0.5887   -0.0000    1.2326 C   0  0  0  0  0  4           0  0  0
   -0.5874    0.0066    5.9620 C   0  0  0  0  0  4           0  0  0
   -0.5951    0.0024    3.6753 C   0  0  0  0  0  4           0  0  0
   -5.0979   -3.4358    5.8422 C   0  0  0  0  0  4           0  0  0
   -4.5390   -1.3936    5.1726 C   0  0  0  0  0  4           0  0  0
   -2.6279    0.0161    4.9369 C   0  0  0  0  0  4           0  0  0
   -2.2381   -5.9204    8.1970 C   0  0  0  0  0  4           0  0  0
   -2.0033    0.0066    3.6694 C   0  0  0  0  0  4           0  0  0
   -1.6929   -5.4949    9.4128 C   0  0  0  0  0  4           0  0  0
    0.1587   -7.0349    9.1319 C   0  0  0  0  0  4           0  0  0
    0.0867   -0.0000    2.4581 C   0  0  0  0  0  4           0  0  0
   -1.9800   -0.0015    1.2265 C   0  0  0  0  0  4           0  0  0
   -4.6804   -2.2139    6.3201 C   0  0  0  0  0  4           0  0  0
   -1.5797   -6.9086    7.4529 C   0  0  0  0  0  4           0  0  0
   -2.6819    0.0025    2.4298 C   0  0  0  0  0  4           0  0  0
   -0.3849   -7.4624    7.9224 C   0  0  0  0  0  4           0  0  0
   -4.1753   -5.5680    6.6164 C   0  0  0  0  0  4           0  0  0
    4.3362   -3.6411   -0.8396 C   0  0  0  0  0  4           0  0  0
    1.4278    0.0000    0.0000 C   0  0  0  0  0  4           0  0  0
    3.6530   -2.4574   -1.5132 C   0  0  0  0  0  4           0  0  0
    3.4467   -0.0000   -1.5837 C   0  0  0  0  0  4           0  0  0
    5.5145   -1.0370   -0.7352 C   0  0  0  0  0  4           0  0  0
   -4.1210    0.0303    5.1163 C   0  0  0  0  0  4           0  0  0
   -5.4184   -4.7121    6.5277 C   0  0  0  0  0  4           0  0  0
    1.9220    0.0000   -1.4413 C   0  0  0  0  0  4           0  0  0
    6.3120   -1.2128   -2.0236 C   0  0  0  0  0  4           0  0  0
  1  3  2  0     0  0
  1  4  1  0     0  0
  1  5  1  0     0  0
  1  6  1  0     0  0
  2 15  1  0     0  0
  4 33  1  0     0  0
  7 16  1  0     0  0
  7 34  1  0     0  0
  8 32  2  0     0  0
  9 10  1  0     0  0
  9 19  1  0     0  0
 10 20  2  0     0  0
 11 17  2  0     0  0
 11 18  1  0     0  0
 12 17  1  0     0  0
 12 21  2  0     0  0
 13 22  1  0     0  0
 13 32  1  0     0  0
 14 35  1  0     0  0
 14 36  1  0     0  0
 14 37  1  0     0  0
 15 24  2  0     0  0
 15 25  1  0     0  0
 16 26  2  0     0  0
 16 27  1  0     0  0
 18 23  2  0     0  0
 18 26  1  0     0  0
 19 28  2  0     0  0
 19 39  1  0     0  0
 20 28  1  0     0  0
 20 38  1  0     0  0
 21 23  1  0     0  0
 21 38  1  0     0  0
 22 24  1  0     0  0
 22 29  2  0     0  0
 23 30  1  0     0  0
 25 31  2  0     0  0
 27 30  2  0     0  0
 29 31  1  0     0  0
 32 39  1  0     0  0
 33 35  1  0     0  0
 34 40  1  0     0  0
 36 40  1  0     0  0
 37 41  1  0     0  0
M  END
> <standard_type>
pIC50

> <# Confs.>
25

> <canonical_smiles>
FC1=CC(NC(CC2=CC(CC3=NC=NC4=C3C=CC(OCCCN(CCOP(O)(O)=O)CC)=C4)=NN2)=O)=CC=C1

> <standard_relation>
=

> <Publication_ID>
Wang_2009

> <predicted_activity_value>
9.455931955649724

> <actual_activity_value>
9.522878745280337

> <Compound>
1

> <standard_units>
nM

> hash
11804495725534374177

$$$$
0
XXILIB    08252103493D 0   0.00000     0.00000

 41 44  0     1  0            999 V2000
   -1.9196    1.5925   -5.4604 P   0  0  2  0  0  5           0  0  0
   -9.2273    3.0951   12.1040 F   0  0  0  0  0  1           0  0  0
   -2.6848    0.5430   -6.2146 O   0  0  0  0  0  2           0  0  0
   -0.3544    1.2621   -5.2165 O   0  0  0  0  0  2           0  0  0
   -2.4924    1.8915   -3.9771 O   0  0  0  0  0  2           0  0  0
   -1.9278    3.0509   -6.1567 O   0  0  0  0  0  2           0  0  0
    0.0000    0.0000    0.0000 O   0  0  0  0  0  2           0  0  0
   -7.5532    5.3798    6.1240 O   0  0  0  0  0  2           0  0  0
   -5.1127    3.3561    4.4487 N   0  0  0  0  0  3           0  0  0
   -4.8313    2.1126    4.0294 N   0  0  0  0  0  3           0  0  0
    0.1114    0.0012    4.8150 N   0  0  0  0  0  3           0  0  0
   -1.9210    0.0160    6.0917 N   0  0  0  0  0  3           0  0  0
   -6.9247    4.4104    8.1413 N   0  0  0  0  0  3           0  0  0
    1.9578   -1.1803   -3.6470 N   0  0  1  0  0  3           0  0  0
   -9.2685    3.6364   10.8785 C   0  0  0  0  0  4           0  0  0
   -0.5887    0.0000    1.2326 C   0  0  0  0  0  4           0  0  0
   -0.5874    0.0066    5.9620 C   0  0  0  0  0  4           0  0  0
   -0.5951    0.0024    3.6753 C   0  0  0  0  0  4           0  0  0
   -4.9825    3.5357    5.7983 C   0  0  0  0  0  4           0  0  0
   -4.5136    1.4619    5.1573 C   0  0  0  0  0  4           0  0  0
   -2.6279    0.0161    4.9369 C   0  0  0  0  0  4           0  0  0
   -8.1306    4.3135    8.8612 C   0  0  0  0  0  4           0  0  0
   -2.0033    0.0066    3.6694 C   0  0  0  0  0  4           0  0  0
   -8.0918    3.7530   10.1420 C   0  0  0  0  0  4           0  0  0
  -10.4854    4.0702   10.3634 C   0  0  0  0  0  4           0  0  0
    0.0867    0.0000    2.4581 C   0  0  0  0  0  4           0  0  0
   -1.9800   -0.0015    1.2265 C   0  0  0  0  0  4           0  0  0
   -4.5799    2.3137    6.2885 C   0  0  0  0  0  4           0  0  0
   -9.3530    4.7547    8.3370 C   0  0  0  0  0  4           0  0  0
   -2.6819    0.0025    2.4298 C   0  0  0  0  0  4           0  0  0
  -10.5252    4.6321    9.0891 C   0  0  0  0  0  4           0  0  0
   -6.6945    4.9172    6.8741 C   0  0  0  0  0  4           0  0  0
   -0.0123    0.0949   -4.4858 C   0  0  0  0  0  4           0  0  0
    1.4278    0.0000    0.0000 C   0  0  0  0  0  4           0  0  0
    1.5053   -0.0003   -4.3886 C   0  0  0  0  0  4           0  0  0
    1.4657   -1.2091   -2.2629 C   0  0  0  0  0  4           0  0  0
    1.6230   -2.4411   -4.3233 C   0  0  0  0  0  4           0  0  0
   -4.1210    0.0303    5.1163 C   0  0  0  0  0  4           0  0  0
   -5.2413    4.8356    6.4653 C   0  0  0  0  0  4           0  0  0
    1.9220    0.0000   -1.4413 C   0  0  0  0  0  4           0  0  0
    2.2605   -2.5267   -5.7064 C   0  0  0  0  0  4           0  0  0
  1  3  2  0     0  0
  1  4  1  0     0  0
  1  5  1  0     0  0
  1  6  1  0     0  0
  2 15  1  0     0  0
  4 33  1  0     0  0
  7 16  1  0     0  0
  7 34  1  0     0  0
  8 32  2  0     0  0
  9 10  1  0     0  0
  9 19  1  0     0  0
 10 20  2  0     0  0
 11 17  2  0     0  0
 11 18  1  0     0  0
 12 17  1  0     0  0
 12 21  2  0     0  0
 13 22  1  0     0  0
 13 32  1  0     0  0
 14 35  1  0     0  0
 14 36  1  0     0  0
 14 37  1  0     0  0
 15 24  2  0     0  0
 15 25  1  0     0  0
 16 26  2  0     0  0
 16 27  1  0     0  0
 18 23  2  0     0  0
 18 26  1  0     0  0
 19 28  2  0     0  0
 19 39  1  0     0  0
 20 28  1  0     0  0
 20 38  1  0     0  0
 21 23  1  0     0  0
 21 38  1  0     0  0
 22 24  1  0     0  0
 22 29  2  0     0  0
 23 30  1  0     0  0
 25 31  2  0     0  0
 27 30  2  0     0  0
 29 31  1  0     0  0
 32 39  1  0     0  0
 33 35  1  0     0  0
 34 40  1  0     0  0
 36 40  1  0     0  0
 37 41  1  0     0  0
M  END
> <standard_type>
pIC50

> <# Confs.>
25

> <canonical_smiles>
FC1=CC(NC(CC2=CC(CC3=NC=NC4=C3C=CC(OCCCN(CCOP(O)(O)=O)CC)=C4)=NN2)=O)=CC=C1

> <standard_relation>
=

> <Publication_ID>
Wang_2009

> <predicted_activity_value>
9.455931955649724

> <actual_activity_value>
9.522878745280337

> <Compound>
1

> <standard_units>
nM

> hash
11804495725534374177

$$$$
0
XXILIB    08252103493D 0   0.00000     0.00000

 41 44  0     1  0            999 V2000
    3.6358    4.1663   -5.0678 P   0  0  2  0  0  5           0  0  0
    0.0199   -5.6419   11.0302 F   0  0  0  0  0  1           0  0  0
    5.0585    4.1949   -5.5482 O   0  0  0  0  0  2           0  0  0
    3.4441    3.8027   -3.5027 O   0  0  0  0  0  2           0  0  0
    2.6989    3.0942   -5.8364 O   0  0  0  0  0  2           0  0  0
    2.8384    5.5579   -5.2667 O   0  0  0  0  0  2           0  0  0
   -0.0000    0.0000    0.0000 O   0  0  0  0  0  2           0  0  0
   -3.8773   -6.3708    5.7328 O   0  0  0  0  0  2           0  0  0
   -5.1954   -3.2772    4.4872 N   0  0  0  0  0  3           0  0  0
   -4.8682   -2.0506    4.0518 N   0  0  0  0  0  3           0  0  0
    0.1114    0.0012    4.8150 N   0  0  0  0  0  3           0  0  0
   -1.9210    0.0160    6.0917 N   0  0  0  0  0  3           0  0  0
   -3.4400   -5.3288    7.7644 N   0  0  0  0  0  3           0  0  0
    4.0804    1.1716   -0.9635 N   0  0  1  0  0  3           0  0  0
   -0.5009   -6.0553    9.8664 C   0  0  0  0  0  4           0  0  0
   -0.5887   -0.0000    1.2326 C   0  0  0  0  0  4           0  0  0
   -0.5874    0.0066    5.9620 C   0  0  0  0  0  4           0  0  0
   -0.5951    0.0024    3.6753 C   0  0  0  0  0  4           0  0  0
   -5.0979   -3.4358    5.8422 C   0  0  0  0  0  4           0  0  0
   -4.5390   -1.3936    5.1726 C   0  0  0  0  0  4           0  0  0
   -2.6279    0.0161    4.9369 C   0  0  0  0  0  4           0  0  0
   -2.2381   -5.9204    8.1970 C   0  0  0  0  0  4           0  0  0
   -2.0033    0.0066    3.6694 C   0  0  0  0  0  4           0  0  0
   -1.6929   -5.4949    9.4128 C   0  0  0  0  0  4           0  0  0
    0.1587   -7.0349    9.1319 C   0  0  0  0  0  4           0  0  0
    0.0867   -0.0000    2.4581 C   0  0  0  0  0  4           0  0  0
   -1.9800   -0.0015    1.2265 C   0  0  0  0  0  4           0  0  0
   -4.6804   -2.2139    6.3201 C   0  0  0  0  0  4           0  0  0
   -1.5797   -6.9086    7.4529 C   0  0  0  0  0  4           0  0  0
   -2.6819    0.0025    2.4298 C   0  0  0  0  0  4           0  0  0
   -0.3849   -7.4624    7.9224 C   0  0  0  0  0  4           0  0  0
   -4.1753   -5.5680    6.6164 C   0  0  0  0  0  4           0  0  0
    3.9173    2.5501   -3.0334 C   0  0  0  0  0  4           0  0  0
    1.4278   -0.0000    0.0000 C   0  0  0  0  0  4           0  0  0
    3.6256    2.4388   -1.5421 C   0  0  0  0  0  4           0  0  0
    3.4467   -0.0000   -1.5837 C   0  0  0  0  0  4           0  0  0
    5.5420    1.0239   -0.9930 C   0  0  0  0  0  4           0  0  0
   -4.1210    0.0303    5.1163 C   0  0  0  0  0  4           0  0  0
   -5.4184   -4.7121    6.5277 C   0  0  0  0  0  4           0  0  0
    1.9220    0.0000   -1.4413 C   0  0  0  0  0  4           0  0  0
    6.2375    2.1331   -0.2100 C   0  0  0  0  0  4           0  0  0
  1  3  2  0     0  0
  1  4  1  0     0  0
  1  5  1  0     0  0
  1  6  1  0     0  0
  2 15  1  0     0  0
  4 33  1  0     0  0
  7 16  1  0     0  0
  7 34  1  0     0  0
  8 32  2  0     0  0
  9 10  1  0     0  0
  9 19  1  0     0  0
 10 20  2  0     0  0
 11 17  2  0     0  0
 11 18  1  0     0  0
 12 17  1  0     0  0
 12 21  2  0     0  0
 13 22  1  0     0  0
 13 32  1  0     0  0
 14 35  1  0     0  0
 14 36  1  0     0  0
 14 37  1  0     0  0
 15 24  2  0     0  0
 15 25  1  0     0  0
 16 26  2  0     0  0
 16 27  1  0     0  0
 18 23  2  0     0  0
 18 26  1  0     0  0
 19 28  2  0     0  0
 19 39  1  0     0  0
 20 28  1  0     0  0
 20 38  1  0     0  0
 21 23  1  0     0  0
 21 38  1  0     0  0
 22 24  1  0     0  0
 22 29  2  0     0  0
 23 30  1  0     0  0
 25 31  2  0     0  0
 27 30  2  0     0  0
 29 31  1  0     0  0
 32 39  1  0     0  0
 33 35  1  0     0  0
 34 40  1  0     0  0
 36 40  1  0     0  0
 37 41  1  0     0  0
M  END
> <standard_type>
pIC50

> <# Confs.>
25

> <canonical_smiles>
FC1=CC(NC(CC2=CC(CC3=NC=NC4=C3C=CC(OCCCN(CCOP(O)(O)=O)CC)=C4)=NN2)=O)=CC=C1

> <standard_relation>
=

> <Publication_ID>
Wang_2009

> <predicted_activity_value>
9.455931955649724

> <actual_activity_value>
9.522878745280337

> <Compound>
1

> <standard_units>
nM

> hash
11804495725534374177

$$$$
0
XXILIB    08252103493D 0   0.00000     0.00000

 41 44  0     1  0            999 V2000
   -1.9196    1.5925   -5.4604 P   0  0  2  0  0  5           0  0  0
   -9.4263   -2.8427   12.1092 F   0  0  0  0  0  1           0  0  0
   -2.6848    0.5430   -6.2146 O   0  0  0  0  0  2           0  0  0
   -0.3544    1.2621   -5.2165 O   0  0  0  0  0  2           0  0  0
   -2.4924    1.8915   -3.9771 O   0  0  0  0  0  2           0  0  0
   -1.9278    3.0509   -6.1567 O   0  0  0  0  0  2           0  0  0
   -0.0000    0.0000    0.0000 O   0  0  0  0  0  2           0  0  0
   -7.7423   -5.1758    6.1507 O   0  0  0  0  0  2           0  0  0
   -5.1954   -3.2772    4.4872 N   0  0  0  0  0  3           0  0  0
   -4.8682   -2.0506    4.0518 N   0  0  0  0  0  3           0  0  0
    0.1114    0.0012    4.8150 N   0  0  0  0  0  3           0  0  0
   -1.9210    0.0160    6.0917 N   0  0  0  0  0  3           0  0  0
   -7.1125   -4.2207    8.1745 N   0  0  0  0  0  3           0  0  0
    1.9578   -1.1803   -3.6470 N   0  0  1  0  0  3           0  0  0
   -9.4693   -3.3690   10.8772 C   0  0  0  0  0  4           0  0  0
   -0.5887   -0.0000    1.2326 C   0  0  0  0  0  4           0  0  0
   -0.5874    0.0066    5.9620 C   0  0  0  0  0  4           0  0  0
   -0.5951    0.0024    3.6753 C   0  0  0  0  0  4           0  0  0
   -5.0979   -3.4358    5.8422 C   0  0  0  0  0  4           0  0  0
   -4.5390   -1.3936    5.1726 C   0  0  0  0  0  4           0  0  0
   -2.6279    0.0161    4.9369 C   0  0  0  0  0  4           0  0  0
   -8.3262   -4.0741    8.8724 C   0  0  0  0  0  4           0  0  0
   -2.0033    0.0066    3.6694 C   0  0  0  0  0  4           0  0  0
   -8.2867   -3.5217   10.1568 C   0  0  0  0  0  4           0  0  0
  -10.6931   -3.7548   10.3410 C   0  0  0  0  0  4           0  0  0
    0.0867   -0.0000    2.4581 C   0  0  0  0  0  4           0  0  0
   -1.9800   -0.0015    1.2265 C   0  0  0  0  0  4           0  0  0
   -4.6804   -2.2139    6.3201 C   0  0  0  0  0  4           0  0  0
   -9.5562   -4.4629    8.3252 C   0  0  0  0  0  4           0  0  0
   -2.6819    0.0025    2.4298 C   0  0  0  0  0  4           0  0  0
  -10.7346   -4.3018    9.0603 C   0  0  0  0  0  4           0  0  0
   -6.8812   -4.7314    6.9090 C   0  0  0  0  0  4           0  0  0
   -0.0123    0.0949   -4.4858 C   0  0  0  0  0  4           0  0  0
    1.4278    0.0000    0.0000 C   0  0  0  0  0  4           0  0  0
    1.5053   -0.0003   -4.3886 C   0  0  0  0  0  4           0  0  0
    1.4657   -1.2091   -2.2629 C   0  0  0  0  0  4           0  0  0
    1.6230   -2.4411   -4.3233 C   0  0  0  0  0  4           0  0  0
   -4.1210    0.0303    5.1163 C   0  0  0  0  0  4           0  0  0
   -5.4184   -4.7121    6.5277 C   0  0  0  0  0  4           0  0  0
    1.9220    0.0000   -1.4413 C   0  0  0  0  0  4           0  0  0
    2.2605   -2.5267   -5.7064 C   0  0  0  0  0  4           0  0  0
  1  3  2  0     0  0
  1  4  1  0     0  0
  1  5  1  0     0  0
  1  6  1  0     0  0
  2 15  1  0     0  0
  4 33  1  0     0  0
  7 16  1  0     0  0
  7 34  1  0     0  0
  8 32  2  0     0  0
  9 10  1  0     0  0
  9 19  1  0     0  0
 10 20  2  0     0  0
 11 17  2  0     0  0
 11 18  1  0     0  0
 12 17  1  0     0  0
 12 21  2  0     0  0
 13 22  1  0     0  0
 13 32  1  0     0  0
 14 35  1  0     0  0
 14 36  1  0     0  0
 14 37  1  0     0  0
 15 24  2  0     0  0
 15 25  1  0     0  0
 16 26  2  0     0  0
 16 27  1  0     0  0
 18 23  2  0     0  0
 18 26  1  0     0  0
 19 28  2  0     0  0
 19 39  1  0     0  0
 20 28  1  0     0  0
 20 38  1  0     0  0
 21 23  1  0     0  0
 21 38  1  0     0  0
 22 24  1  0     0  0
 22 29  2  0     0  0
 23 30  1  0     0  0
 25 31  2  0     0  0
 27 30  2  0     0  0
 29 31  1  0     0  0
 32 39  1  0     0  0
 33 35  1  0     0  0
 34 40  1  0     0  0
 36 40  1  0     0  0
 37 41  1  0     0  0
M  END
> <standard_type>
pIC50

> <# Confs.>
25

> <canonical_smiles>
FC1=CC(NC(CC2=CC(CC3=NC=NC4=C3C=CC(OCCCN(CCOP(O)(O)=O)CC)=C4)=NN2)=O)=CC=C1

> <standard_relation>
=

> <Publication_ID>
Wang_2009

> <predicted_activity_value>
9.455931955649724

> <actual_activity_value>
9.522878745280337

> <Compound>
1

> <standard_units>
nM

> hash
11804495725534374177

$$$$
0
XXILIB    08252103493D 0   0.00000     0.00000

 41 44  0     1  0            999 V2000
    3.6358    4.1663   -5.0678 P   0  0  2  0  0  5           0  0  0
   -9.2273    3.0951   12.1040 F   0  0  0  0  0  1           0  0  0
    5.0585    4.1949   -5.5482 O   0  0  0  0  0  2           0  0  0
    3.4441    3.8027   -3.5027 O   0  0  0  0  0  2           0  0  0
    2.6989    3.0942   -5.8364 O   0  0  0  0  0  2           0  0  0
    2.8384    5.5579   -5.2667 O   0  0  0  0  0  2           0  0  0
    0.0000    0.0000    0.0000 O   0  0  0  0  0  2           0  0  0
   -7.5532    5.3798    6.1240 O   0  0  0  0  0  2           0  0  0
   -5.1127    3.3561    4.4487 N   0  0  0  0  0  3           0  0  0
   -4.8313    2.1126    4.0294 N   0  0  0  0  0  3           0  0  0
    0.1114    0.0012    4.8150 N   0  0  0  0  0  3           0  0  0
   -1.9210    0.0160    6.0917 N   0  0  0  0  0  3           0  0  0
   -6.9247    4.4104    8.1413 N   0  0  0  0  0  3           0  0  0
    4.0804    1.1716   -0.9635 N   0  0  1  0  0  3           0  0  0
   -9.2685    3.6364   10.8785 C   0  0  0  0  0  4           0  0  0
   -0.5887    0.0000    1.2326 C   0  0  0  0  0  4           0  0  0
   -0.5874    0.0066    5.9620 C   0  0  0  0  0  4           0  0  0
   -0.5951    0.0024    3.6753 C   0  0  0  0  0  4           0  0  0
   -4.9825    3.5357    5.7983 C   0  0  0  0  0  4           0  0  0
   -4.5136    1.4619    5.1573 C   0  0  0  0  0  4           0  0  0
   -2.6279    0.0161    4.9369 C   0  0  0  0  0  4           0  0  0
   -8.1306    4.3135    8.8612 C   0  0  0  0  0  4           0  0  0
   -2.0033    0.0066    3.6694 C   0  0  0  0  0  4           0  0  0
   -8.0918    3.7530   10.1420 C   0  0  0  0  0  4           0  0  0
  -10.4854    4.0702   10.3634 C   0  0  0  0  0  4           0  0  0
    0.0867    0.0000    2.4581 C   0  0  0  0  0  4           0  0  0
   -1.9800   -0.0015    1.2265 C   0  0  0  0  0  4           0  0  0
   -4.5799    2.3137    6.2885 C   0  0  0  0  0  4           0  0  0
   -9.3530    4.7547    8.3370 C   0  0  0  0  0  4           0  0  0
   -2.6819    0.0025    2.4298 C   0  0  0  0  0  4           0  0  0
  -10.5252    4.6321    9.0891 C   0  0  0  0  0  4           0  0  0
   -6.6945    4.9172    6.8741 C   0  0  0  0  0  4           0  0  0
    3.9173    2.5501   -3.0334 C   0  0  0  0  0  4           0  0  0
    1.4278   -0.0000    0.0000 C   0  0  0  0  0  4           0  0  0
    3.6256    2.4388   -1.5421 C   0  0  0  0  0  4           0  0  0
    3.4467   -0.0000   -1.5837 C   0  0  0  0  0  4           0  0  0
    5.5420    1.0239   -0.9930 C   0  0  0  0  0  4           0  0  0
   -4.1210    0.0303    5.1163 C   0  0  0  0  0  4           0  0  0
   -5.2413    4.8356    6.4653 C   0  0  0  0  0  4           0  0  0
    1.9220    0.0000   -1.4413 C   0  0  0  0  0  4           0  0  0
    6.2375    2.1331   -0.2100 C   0  0  0  0  0  4           0  0  0
  1  3  2  0     0  0
  1  4  1  0     0  0
  1  5  1  0     0  0
  1  6  1  0     0  0
  2 15  1  0     0  0
  4 33  1  0     0  0
  7 16  1  0     0  0
  7 34  1  0     0  0
  8 32  2  0     0  0
  9 10  1  0     0  0
  9 19  1  0     0  0
 10 20  2  0     0  0
 11 17  2  0     0  0
 11 18  1  0     0  0
 12 17  1  0     0  0
 12 21  2  0     0  0
 13 22  1  0     0  0
 13 32  1  0     0  0
 14 35  1  0     0  0
 14 36  1  0     0  0
 14 37  1  0     0  0
 15 24  2  0     0  0
 15 25  1  0     0  0
 16 26  2  0     0  0
 16 27  1  0     0  0
 18 23  2  0     0  0
 18 26  1  0     0  0
 19 28  2  0     0  0
 19 39  1  0     0  0
 20 28  1  0     0  0
 20 38  1  0     0  0
 21 23  1  0     0  0
 21 38  1  0     0  0
 22 24  1  0     0  0
 22 29  2  0     0  0
 23 30  1  0     0  0
 25 31  2  0     0  0
 27 30  2  0     0  0
 29 31  1  0     0  0
 32 39  1  0     0  0
 33 35  1  0     0  0
 34 40  1  0     0  0
 36 40  1  0     0  0
 37 41  1  0     0  0
M  END
> <standard_type>
pIC50

> <# Confs.>
25

> <canonical_smiles>
FC1=CC(NC(CC2=CC(CC3=NC=NC4=C3C=CC(OCCCN(CCOP(O)(O)=O)CC)=C4)=NN2)=O)=CC=C1

> <standard_relation>
=

> <Publication_ID>
Wang_2009

> <predicted_activity_value>
9.455931955649724

> <actual_activity_value>
9.522878745280337

> <Compound>
1

> <standard_units>
nM

> hash
11804495725534374177

$$$$
0
XXILIB    08252103493D 0   0.00000     0.00000

 41 44  0     1  0            999 V2000
    4.4437   -6.2519   -0.8871 P   0  0  2  0  0  5           0  0  0
   -9.2273    3.0951   12.1040 F   0  0  0  0  0  1           0  0  0
    5.9297   -6.4269   -1.0174 O   0  0  0  0  0  2           0  0  0
    3.8657   -4.8418   -1.4312 O   0  0  0  0  0  2           0  0  0
    3.8977   -6.3383    0.6335 O   0  0  0  0  0  2           0  0  0
    3.5717   -7.3763   -1.6534 O   0  0  0  0  0  2           0  0  0
    0.0000    0.0000    0.0000 O   0  0  0  0  0  2           0  0  0
   -7.5532    5.3798    6.1240 O   0  0  0  0  0  2           0  0  0
   -5.1127    3.3561    4.4487 N   0  0  0  0  0  3           0  0  0
   -4.8313    2.1126    4.0294 N   0  0  0  0  0  3           0  0  0
    0.1114    0.0012    4.8150 N   0  0  0  0  0  3           0  0  0
   -1.9210    0.0160    6.0917 N   0  0  0  0  0  3           0  0  0
   -6.9247    4.4104    8.1413 N   0  0  0  0  0  3           0  0  0
    4.0771   -1.1656   -0.9667 N   0  0  1  0  0  3           0  0  0
   -9.2685    3.6364   10.8785 C   0  0  0  0  0  4           0  0  0
   -0.5887    0.0000    1.2326 C   0  0  0  0  0  4           0  0  0
   -0.5874    0.0066    5.9620 C   0  0  0  0  0  4           0  0  0
   -0.5951    0.0024    3.6753 C   0  0  0  0  0  4           0  0  0
   -4.9825    3.5357    5.7983 C   0  0  0  0  0  4           0  0  0
   -4.5136    1.4619    5.1573 C   0  0  0  0  0  4           0  0  0
   -2.6279    0.0161    4.9369 C   0  0  0  0  0  4           0  0  0
   -8.1306    4.3135    8.8612 C   0  0  0  0  0  4           0  0  0
   -2.0033    0.0066    3.6694 C   0  0  0  0  0  4           0  0  0
   -8.0918    3.7530   10.1420 C   0  0  0  0  0  4           0  0  0
  -10.4854    4.0702   10.3634 C   0  0  0  0  0  4           0  0  0
    0.0867    0.0000    2.4581 C   0  0  0  0  0  4           0  0  0
   -1.9800   -0.0015    1.2265 C   0  0  0  0  0  4           0  0  0
   -4.5799    2.3137    6.2885 C   0  0  0  0  0  4           0  0  0
   -9.3530    4.7547    8.3370 C   0  0  0  0  0  4           0  0  0
   -2.6819    0.0025    2.4298 C   0  0  0  0  0  4           0  0  0
  -10.5252    4.6321    9.0891 C   0  0  0  0  0  4           0  0  0
   -6.6945    4.9172    6.8741 C   0  0  0  0  0  4           0  0  0
    4.3362   -3.6411   -0.8396 C   0  0  0  0  0  4           0  0  0
    1.4278    0.0000    0.0000 C   0  0  0  0  0  4           0  0  0
    3.6530   -2.4574   -1.5132 C   0  0  0  0  0  4           0  0  0
    3.4467   -0.0000   -1.5837 C   0  0  0  0  0  4           0  0  0
    5.5145   -1.0370   -0.7352 C   0  0  0  0  0  4           0  0  0
   -4.1210    0.0303    5.1163 C   0  0  0  0  0  4           0  0  0
   -5.2413    4.8356    6.4653 C   0  0  0  0  0  4           0  0  0
    1.9220    0.0000   -1.4413 C   0  0  0  0  0  4           0  0  0
    6.3120   -1.2128   -2.0236 C   0  0  0  0  0  4           0  0  0
  1  3  2  0     0  0
  1  4  1  0     0  0
  1  5  1  0     0  0
  1  6  1  0     0  0
  2 15  1  0     0  0
  4 33  1  0     0  0
  7 16  1  0     0  0
  7 34  1  0     0  0
  8 32  2  0     0  0
  9 10  1  0     0  0
  9 19  1  0     0  0
 10 20  2  0     0  0
 11 17  2  0     0  0
 11 18  1  0     0  0
 12 17  1  0     0  0
 12 21  2  0     0  0
 13 22  1  0     0  0
 13 32  1  0     0  0
 14 35  1  0     0  0
 14 36  1  0     0  0
 14 37  1  0     0  0
 15 24  2  0     0  0
 15 25  1  0     0  0
 16 26  2  0     0  0
 16 27  1  0     0  0
 18 23  2  0     0  0
 18 26  1  0     0  0
 19 28  2  0     0  0
 19 39  1  0     0  0
 20 28  1  0     0  0
 20 38  1  0     0  0
 21 23  1  0     0  0
 21 38  1  0     0  0
 22 24  1  0     0  0
 22 29  2  0     0  0
 23 30  1  0     0  0
 25 31  2  0     0  0
 27 30  2  0     0  0
 29 31  1  0     0  0
 32 39  1  0     0  0
 33 35  1  0     0  0
 34 40  1  0     0  0
 36 40  1  0     0  0
 37 41  1  0     0  0
M  END
> <standard_type>
pIC50

> <# Confs.>
25

> <canonical_smiles>
FC1=CC(NC(CC2=CC(CC3=NC=NC4=C3C=CC(OCCCN(CCOP(O)(O)=O)CC)=C4)=NN2)=O)=CC=C1

> <standard_relation>
=

> <Publication_ID>
Wang_2009

> <predicted_activity_value>
9.455931955649724

> <actual_activity_value>
9.522878745280337

> <Compound>
1

> <standard_units>
nM

> hash
11804495725534374177

$$$$
0
XXILIB    08252103493D 0   0.00000     0.00000

 41 44  0     1  0            999 V2000
    3.6358    4.1663   -5.0678 P   0  0  2  0  0  5           0  0  0
   -9.4263   -2.8427   12.1092 F   0  0  0  0  0  1           0  0  0
    5.0585    4.1949   -5.5482 O   0  0  0  0  0  2           0  0  0
    3.4441    3.8027   -3.5027 O   0  0  0  0  0  2           0  0  0
    2.6989    3.0942   -5.8364 O   0  0  0  0  0  2           0  0  0
    2.8384    5.5579   -5.2667 O   0  0  0  0  0  2           0  0  0
   -0.0000    0.0000    0.0000 O   0  0  0  0  0  2           0  0  0
   -7.7423   -5.1758    6.1507 O   0  0  0  0  0  2           0  0  0
   -5.1954   -3.2772    4.4872 N   0  0  0  0  0  3           0  0  0
   -4.8682   -2.0506    4.0518 N   0  0  0  0  0  3           0  0  0
    0.1114    0.0012    4.8150 N   0  0  0  0  0  3           0  0  0
   -1.9210    0.0160    6.0917 N   0  0  0  0  0  3           0  0  0
   -7.1125   -4.2207    8.1745 N   0  0  0  0  0  3           0  0  0
    4.0804    1.1716   -0.9635 N   0  0  1  0  0  3           0  0  0
   -9.4693   -3.3690   10.8772 C   0  0  0  0  0  4           0  0  0
   -0.5887   -0.0000    1.2326 C   0  0  0  0  0  4           0  0  0
   -0.5874    0.0066    5.9620 C   0  0  0  0  0  4           0  0  0
   -0.5951    0.0024    3.6753 C   0  0  0  0  0  4           0  0  0
   -5.0979   -3.4358    5.8422 C   0  0  0  0  0  4           0  0  0
   -4.5390   -1.3936    5.1726 C   0  0  0  0  0  4           0  0  0
   -2.6279    0.0161    4.9369 C   0  0  0  0  0  4           0  0  0
   -8.3262   -4.0741    8.8724 C   0  0  0  0  0  4           0  0  0
   -2.0033    0.0066    3.6694 C   0  0  0  0  0  4           0  0  0
   -8.2867   -3.5217   10.1568 C   0  0  0  0  0  4           0  0  0
  -10.6931   -3.7548   10.3410 C   0  0  0  0  0  4           0  0  0
    0.0867   -0.0000    2.4581 C   0  0  0  0  0  4           0  0  0
   -1.9800   -0.0015    1.2265 C   0  0  0  0  0  4           0  0  0
   -4.6804   -2.2139    6.3201 C   0  0  0  0  0  4           0  0  0
   -9.5562   -4.4629    8.3252 C   0  0  0  0  0  4           0  0  0
   -2.6819    0.0025    2.4298 C   0  0  0  0  0  4           0  0  0
  -10.7346   -4.3018    9.0603 C   0  0  0  0  0  4           0  0  0
   -6.8812   -4.7314    6.9090 C   0  0  0  0  0  4           0  0  0
    3.9173    2.5501   -3.0334 C   0  0  0  0  0  4           0  0  0
    1.4278   -0.0000    0.0000 C   0  0  0  0  0  4           0  0  0
    3.6256    2.4388   -1.5421 C   0  0  0  0  0  4           0  0  0
    3.4467   -0.0000   -1.5837 C   0  0  0  0  0  4           0  0  0
    5.5420    1.0239   -0.9930 C   0  0  0  0  0  4           0  0  0
   -4.1210    0.0303    5.1163 C   0  0  0  0  0  4           0  0  0
   -5.4184   -4.7121    6.5277 C   0  0  0  0  0  4           0  0  0
    1.9220    0.0000   -1.4413 C   0  0  0  0  0  4           0  0  0
    6.2375    2.1331   -0.2100 C   0  0  0  0  0  4           0  0  0
  1  3  2  0     0  0
  1  4  1  0     0  0
  1  5  1  0     0  0
  1  6  1  0     0  0
  2 15  1  0     0  0
  4 33  1  0     0  0
  7 16  1  0     0  0
  7 34  1  0     0  0
  8 32  2  0     0  0
  9 10  1  0     0  0
  9 19  1  0     0  0
 10 20  2  0     0  0
 11 17  2  0     0  0
 11 18  1  0     0  0
 12 17  1  0     0  0
 12 21  2  0     0  0
 13 22  1  0     0  0
 13 32  1  0     0  0
 14 35  1  0     0  0
 14 36  1  0     0  0
 14 37  1  0     0  0
 15 24  2  0     0  0
 15 25  1  0     0  0
 16 26  2  0     0  0
 16 27  1  0     0  0
 18 23  2  0     0  0
 18 26  1  0     0  0
 19 28  2  0     0  0
 19 39  1  0     0  0
 20 28  1  0     0  0
 20 38  1  0     0  0
 21 23  1  0     0  0
 21 38  1  0     0  0
 22 24  1  0     0  0
 22 29  2  0     0  0
 23 30  1  0     0  0
 25 31  2  0     0  0
 27 30  2  0     0  0
 29 31  1  0     0  0
 32 39  1  0     0  0
 33 35  1  0     0  0
 34 40  1  0     0  0
 36 40  1  0     0  0
 37 41  1  0     0  0
M  END
> <standard_type>
pIC50

> <# Confs.>
25

> <canonical_smiles>
FC1=CC(NC(CC2=CC(CC3=NC=NC4=C3C=CC(OCCCN(CCOP(O)(O)=O)CC)=C4)=NN2)=O)=CC=C1

> <standard_relation>
=

> <Publication_ID>
Wang_2009

> <predicted_activity_value>
9.455931955649724

> <actual_activity_value>
9.522878745280337

> <Compound>
1

> <standard_units>
nM

> hash
11804495725534374177

$$$$
0
XXILIB    08252103493D 0   0.00000     0.00000

 41 44  0     1  0            999 V2000
   -1.9196    1.5925   -5.4604 P   0  0  2  0  0  5           0  0  0
    0.2483    5.7441   10.9095 F   0  0  0  0  0  1           0  0  0
   -2.6848    0.5430   -6.2146 O   0  0  0  0  0  2           0  0  0
   -0.3544    1.2621   -5.2165 O   0  0  0  0  0  2           0  0  0
   -2.4924    1.8915   -3.9771 O   0  0  0  0  0  2           0  0  0
   -1.9278    3.0509   -6.1567 O   0  0  0  0  0  2           0  0  0
    0.0000    0.0000    0.0000 O   0  0  0  0  0  2           0  0  0
   -3.6552    6.4198    5.6096 O   0  0  0  0  0  2           0  0  0
   -5.1127    3.3561    4.4487 N   0  0  0  0  0  3           0  0  0
   -4.8313    2.1126    4.0294 N   0  0  0  0  0  3           0  0  0
    0.1114    0.0012    4.8150 N   0  0  0  0  0  3           0  0  0
   -1.9210    0.0160    6.0917 N   0  0  0  0  0  3           0  0  0
   -3.2324    5.4228    7.6667 N   0  0  0  0  0  3           0  0  0
    1.9578   -1.1803   -3.6470 N   0  0  1  0  0  3           0  0  0
   -0.2602    6.1261    9.7296 C   0  0  0  0  0  4           0  0  0
   -0.5887    0.0000    1.2326 C   0  0  0  0  0  4           0  0  0
   -0.5874    0.0066    5.9620 C   0  0  0  0  0  4           0  0  0
   -0.5951    0.0024    3.6753 C   0  0  0  0  0  4           0  0  0
   -4.9825    3.5357    5.7983 C   0  0  0  0  0  4           0  0  0
   -4.5136    1.4619    5.1573 C   0  0  0  0  0  4           0  0  0
   -2.6279    0.0161    4.9369 C   0  0  0  0  0  4           0  0  0
   -2.0057    5.9836    8.0695 C   0  0  0  0  0  4           0  0  0
   -2.0033    0.0066    3.6694 C   0  0  0  0  0  4           0  0  0
   -1.4693    5.5851    9.2983 C   0  0  0  0  0  4           0  0  0
    0.4274    7.0567    8.9579 C   0  0  0  0  0  4           0  0  0
    0.0867    0.0000    2.4581 C   0  0  0  0  0  4           0  0  0
   -1.9800   -0.0015    1.2265 C   0  0  0  0  0  4           0  0  0
   -4.5799    2.3137    6.2885 C   0  0  0  0  0  4           0  0  0
   -1.3170    6.9192    7.2860 C   0  0  0  0  0  4           0  0  0
   -2.6819    0.0025    2.4298 C   0  0  0  0  0  4           0  0  0
   -0.1037    7.4519    7.7320 C   0  0  0  0  0  4           0  0  0
   -3.9656    5.6453    6.5139 C   0  0  0  0  0  4           0  0  0
   -0.0123    0.0949   -4.4858 C   0  0  0  0  0  4           0  0  0
    1.4278    0.0000    0.0000 C   0  0  0  0  0  4           0  0  0
    1.5053   -0.0003   -4.3886 C   0  0  0  0  0  4           0  0  0
    1.4657   -1.2091   -2.2629 C   0  0  0  0  0  4           0  0  0
    1.6230   -2.4411   -4.3233 C   0  0  0  0  0  4           0  0  0
   -4.1210    0.0303    5.1163 C   0  0  0  0  0  4           0  0  0
   -5.2413    4.8356    6.4653 C   0  0  0  0  0  4           0  0  0
    1.9220    0.0000   -1.4413 C   0  0  0  0  0  4           0  0  0
    2.2605   -2.5267   -5.7064 C   0  0  0  0  0  4           0  0  0
  1  3  2  0     0  0
  1  4  1  0     0  0
  1  5  1  0     0  0
  1  6  1  0     0  0
  2 15  1  0     0  0
  4 33  1  0     0  0
  7 16  1  0     0  0
  7 34  1  0     0  0
  8 32  2  0     0  0
  9 10  1  0     0  0
  9 19  1  0     0  0
 10 20  2  0     0  0
 11 17  2  0     0  0
 11 18  1  0     0  0
 12 17  1  0     0  0
 12 21  2  0     0  0
 13 22  1  0     0  0
 13 32  1  0     0  0
 14 35  1  0     0  0
 14 36  1  0     0  0
 14 37  1  0     0  0
 15 24  2  0     0  0
 15 25  1  0     0  0
 16 26  2  0     0  0
 16 27  1  0     0  0
 18 23  2  0     0  0
 18 26  1  0     0  0
 19 28  2  0     0  0
 19 39  1  0     0  0
 20 28  1  0     0  0
 20 38  1  0     0  0
 21 23  1  0     0  0
 21 38  1  0     0  0
 22 24  1  0     0  0
 22 29  2  0     0  0
 23 30  1  0     0  0
 25 31  2  0     0  0
 27 30  2  0     0  0
 29 31  1  0     0  0
 32 39  1  0     0  0
 33 35  1  0     0  0
 34 40  1  0     0  0
 36 40  1  0     0  0
 37 41  1  0     0  0
M  END
> <standard_type>
pIC50

> <# Confs.>
25

> <canonical_smiles>
FC1=CC(NC(CC2=CC(CC3=NC=NC4=C3C=CC(OCCCN(CCOP(O)(O)=O)CC)=C4)=NN2)=O)=CC=C1

> <standard_relation>
=

> <Publication_ID>
Wang_2009

> <predicted_activity_value>
9.455931955649724

> <actual_activity_value>
9.522878745280337

> <Compound>
1

> <standard_units>
nM

> hash
11804495725534374177

$$$$
0
XXILIB    08252103493D 0   0.00000     0.00000

 41 44  0     1  0            999 V2000
    4.4437   -6.2519   -0.8871 P   0  0  2  0  0  5           0  0  0
   -9.4263   -2.8427   12.1092 F   0  0  0  0  0  1           0  0  0
    5.9297   -6.4269   -1.0174 O   0  0  0  0  0  2           0  0  0
    3.8657   -4.8418   -1.4312 O   0  0  0  0  0  2           0  0  0
    3.8977   -6.3383    0.6335 O   0  0  0  0  0  2           0  0  0
    3.5717   -7.3763   -1.6534 O   0  0  0  0  0  2           0  0  0
   -0.0000    0.0000    0.0000 O   0  0  0  0  0  2           0  0  0
   -7.7423   -5.1758    6.1507 O   0  0  0  0  0  2           0  0  0
   -5.1954   -3.2772    4.4872 N   0  0  0  0  0  3           0  0  0
   -4.8682   -2.0506    4.0518 N   0  0  0  0  0  3           0  0  0
    0.1114    0.0012    4.8150 N   0  0  0  0  0  3           0  0  0
   -1.9210    0.0160    6.0917 N   0  0  0  0  0  3           0  0  0
   -7.1125   -4.2207    8.1745 N   0  0  0  0  0  3           0  0  0
    4.0771   -1.1656   -0.9667 N   0  0  1  0  0  3           0  0  0
   -9.4693   -3.3690   10.8772 C   0  0  0  0  0  4           0  0  0
   -0.5887   -0.0000    1.2326 C   0  0  0  0  0  4           0  0  0
   -0.5874    0.0066    5.9620 C   0  0  0  0  0  4           0  0  0
   -0.5951    0.0024    3.6753 C   0  0  0  0  0  4           0  0  0
   -5.0979   -3.4358    5.8422 C   0  0  0  0  0  4           0  0  0
   -4.5390   -1.3936    5.1726 C   0  0  0  0  0  4           0  0  0
   -2.6279    0.0161    4.9369 C   0  0  0  0  0  4           0  0  0
   -8.3262   -4.0741    8.8724 C   0  0  0  0  0  4           0  0  0
   -2.0033    0.0066    3.6694 C   0  0  0  0  0  4           0  0  0
   -8.2867   -3.5217   10.1568 C   0  0  0  0  0  4           0  0  0
  -10.6931   -3.7548   10.3410 C   0  0  0  0  0  4           0  0  0
    0.0867   -0.0000    2.4581 C   0  0  0  0  0  4           0  0  0
   -1.9800   -0.0015    1.2265 C   0  0  0  0  0  4           0  0  0
   -4.6804   -2.2139    6.3201 C   0  0  0  0  0  4           0  0  0
   -9.5562   -4.4629    8.3252 C   0  0  0  0  0  4           0  0  0
   -2.6819    0.0025    2.4298 C   0  0  0  0  0  4           0  0  0
  -10.7346   -4.3018    9.0603 C   0  0  0  0  0  4           0  0  0
   -6.8812   -4.7314    6.9090 C   0  0  0  0  0  4           0  0  0
    4.3362   -3.6411   -0.8396 C   0  0  0  0  0  4           0  0  0
    1.4278    0.0000    0.0000 C   0  0  0  0  0  4           0  0  0
    3.6530   -2.4574   -1.5132 C   0  0  0  0  0  4           0  0  0
    3.4467   -0.0000   -1.5837 C   0  0  0  0  0  4           0  0  0
    5.5145   -1.0370   -0.7352 C   0  0  0  0  0  4           0  0  0
   -4.1210    0.0303    5.1163 C   0  0  0  0  0  4           0  0  0
   -5.4184   -4.7121    6.5277 C   0  0  0  0  0  4           0  0  0
    1.9220    0.0000   -1.4413 C   0  0  0  0  0  4           0  0  0
    6.3120   -1.2128   -2.0236 C   0  0  0  0  0  4           0  0  0
  1  3  2  0     0  0
  1  4  1  0     0  0
  1  5  1  0     0  0
  1  6  1  0     0  0
  2 15  1  0     0  0
  4 33  1  0     0  0
  7 16  1  0     0  0
  7 34  1  0     0  0
  8 32  2  0     0  0
  9 10  1  0     0  0
  9 19  1  0     0  0
 10 20  2  0     0  0
 11 17  2  0     0  0
 11 18  1  0     0  0
 12 17  1  0     0  0
 12 21  2  0     0  0
 13 22  1  0     0  0
 13 32  1  0     0  0
 14 35  1  0     0  0
 14 36  1  0     0  0
 14 37  1  0     0  0
 15 24  2  0     0  0
 15 25  1  0     0  0
 16 26  2  0     0  0
 16 27  1  0     0  0
 18 23  2  0     0  0
 18 26  1  0     0  0
 19 28  2  0     0  0
 19 39  1  0     0  0
 20 28  1  0     0  0
 20 38  1  0     0  0
 21 23  1  0     0  0
 21 38  1  0     0  0
 22 24  1  0     0  0
 22 29  2  0     0  0
 23 30  1  0     0  0
 25 31  2  0     0  0
 27 30  2  0     0  0
 29 31  1  0     0  0
 32 39  1  0     0  0
 33 35  1  0     0  0
 34 40  1  0     0  0
 36 40  1  0     0  0
 37 41  1  0     0  0
M  END
> <standard_type>
pIC50

> <# Confs.>
25

> <canonical_smiles>
FC1=CC(NC(CC2=CC(CC3=NC=NC4=C3C=CC(OCCCN(CCOP(O)(O)=O)CC)=C4)=NN2)=O)=CC=C1

> <standard_relation>
=

> <Publication_ID>
Wang_2009

> <predicted_activity_value>
9.455931955649724

> <actual_activity_value>
9.522878745280337

> <Compound>
1

> <standard_units>
nM

> hash
11804495725534374177

$$$$
0
XXILIB    08252103493D 0   0.00000     0.00000

 41 44  0     1  0            999 V2000
    3.6358    4.1663   -5.0678 P   0  0  2  0  0  5           0  0  0
    0.2483    5.7441   10.9095 F   0  0  0  0  0  1           0  0  0
    5.0585    4.1949   -5.5482 O   0  0  0  0  0  2           0  0  0
    3.4441    3.8027   -3.5027 O   0  0  0  0  0  2           0  0  0
    2.6989    3.0942   -5.8364 O   0  0  0  0  0  2           0  0  0
    2.8384    5.5579   -5.2667 O   0  0  0  0  0  2           0  0  0
    0.0000    0.0000    0.0000 O   0  0  0  0  0  2           0  0  0
   -3.6552    6.4198    5.6096 O   0  0  0  0  0  2           0  0  0
   -5.1127    3.3561    4.4487 N   0  0  0  0  0  3           0  0  0
   -4.8313    2.1126    4.0294 N   0  0  0  0  0  3           0  0  0
    0.1114    0.0012    4.8150 N   0  0  0  0  0  3           0  0  0
   -1.9210    0.0160    6.0917 N   0  0  0  0  0  3           0  0  0
   -3.2324    5.4228    7.6667 N   0  0  0  0  0  3           0  0  0
    4.0804    1.1716   -0.9635 N   0  0  1  0  0  3           0  0  0
   -0.2602    6.1261    9.7296 C   0  0  0  0  0  4           0  0  0
   -0.5887    0.0000    1.2326 C   0  0  0  0  0  4           0  0  0
   -0.5874    0.0066    5.9620 C   0  0  0  0  0  4           0  0  0
   -0.5951    0.0024    3.6753 C   0  0  0  0  0  4           0  0  0
   -4.9825    3.5357    5.7983 C   0  0  0  0  0  4           0  0  0
   -4.5136    1.4619    5.1573 C   0  0  0  0  0  4           0  0  0
   -2.6279    0.0161    4.9369 C   0  0  0  0  0  4           0  0  0
   -2.0057    5.9836    8.0695 C   0  0  0  0  0  4           0  0  0
   -2.0033    0.0066    3.6694 C   0  0  0  0  0  4           0  0  0
   -1.4693    5.5851    9.2983 C   0  0  0  0  0  4           0  0  0
    0.4274    7.0567    8.9579 C   0  0  0  0  0  4           0  0  0
    0.0867    0.0000    2.4581 C   0  0  0  0  0  4           0  0  0
   -1.9800   -0.0015    1.2265 C   0  0  0  0  0  4           0  0  0
   -4.5799    2.3137    6.2885 C   0  0  0  0  0  4           0  0  0
   -1.3170    6.9192    7.2860 C   0  0  0  0  0  4           0  0  0
   -2.6819    0.0025    2.4298 C   0  0  0  0  0  4           0  0  0
   -0.1037    7.4519    7.7320 C   0  0  0  0  0  4           0  0  0
   -3.9656    5.6453    6.5139 C   0  0  0  0  0  4           0  0  0
    3.9173    2.5501   -3.0334 C   0  0  0  0  0  4           0  0  0
    1.4278   -0.0000    0.0000 C   0  0  0  0  0  4           0  0  0
    3.6256    2.4388   -1.5421 C   0  0  0  0  0  4           0  0  0
    3.4467   -0.0000   -1.5837 C   0  0  0  0  0  4           0  0  0
    5.5420    1.0239   -0.9930 C   0  0  0  0  0  4           0  0  0
   -4.1210    0.0303    5.1163 C   0  0  0  0  0  4           0  0  0
   -5.2413    4.8356    6.4653 C   0  0  0  0  0  4           0  0  0
    1.9220    0.0000   -1.4413 C   0  0  0  0  0  4           0  0  0
    6.2375    2.1331   -0.2100 C   0  0  0  0  0  4           0  0  0
  1  3  2  0     0  0
  1  4  1  0     0  0
  1  5  1  0     0  0
  1  6  1  0     0  0
  2 15  1  0     0  0
  4 33  1  0     0  0
  7 16  1  0     0  0
  7 34  1  0     0  0
  8 32  2  0     0  0
  9 10  1  0     0  0
  9 19  1  0     0  0
 10 20  2  0     0  0
 11 17  2  0     0  0
 11 18  1  0     0  0
 12 17  1  0     0  0
 12 21  2  0     0  0
 13 22  1  0     0  0
 13 32  1  0     0  0
 14 35  1  0     0  0
 14 36  1  0     0  0
 14 37  1  0     0  0
 15 24  2  0     0  0
 15 25  1  0     0  0
 16 26  2  0     0  0
 16 27  1  0     0  0
 18 23  2  0     0  0
 18 26  1  0     0  0
 19 28  2  0     0  0
 19 39  1  0     0  0
 20 28  1  0     0  0
 20 38  1  0     0  0
 21 23  1  0     0  0
 21 38  1  0     0  0
 22 24  1  0     0  0
 22 29  2  0     0  0
 23 30  1  0     0  0
 25 31  2  0     0  0
 27 30  2  0     0  0
 29 31  1  0     0  0
 32 39  1  0     0  0
 33 35  1  0     0  0
 34 40  1  0     0  0
 36 40  1  0     0  0
 37 41  1  0     0  0
M  END
> <standard_type>
pIC50

> <# Confs.>
25

> <canonical_smiles>
FC1=CC(NC(CC2=CC(CC3=NC=NC4=C3C=CC(OCCCN(CCOP(O)(O)=O)CC)=C4)=NN2)=O)=CC=C1

> <standard_relation>
=

> <Publication_ID>
Wang_2009

> <predicted_activity_value>
9.455931955649724

> <actual_activity_value>
9.522878745280337

> <Compound>
1

> <standard_units>
nM

> hash
11804495725534374177

$$$$
0
XXILIB    08252103493D 0   0.00000     0.00000

 41 44  0     1  0            999 V2000
    4.4437   -6.2519   -0.8871 P   0  0  2  0  0  5           0  0  0
    0.2483    5.7441   10.9095 F   0  0  0  0  0  1           0  0  0
    5.9297   -6.4269   -1.0174 O   0  0  0  0  0  2           0  0  0
    3.8657   -4.8418   -1.4312 O   0  0  0  0  0  2           0  0  0
    3.8977   -6.3383    0.6335 O   0  0  0  0  0  2           0  0  0
    3.5717   -7.3763   -1.6534 O   0  0  0  0  0  2           0  0  0
    0.0000    0.0000    0.0000 O   0  0  0  0  0  2           0  0  0
   -3.6552    6.4198    5.6096 O   0  0  0  0  0  2           0  0  0
   -5.1127    3.3561    4.4487 N   0  0  0  0  0  3           0  0  0
   -4.8313    2.1126    4.0294 N   0  0  0  0  0  3           0  0  0
    0.1114    0.0012    4.8150 N   0  0  0  0  0  3           0  0  0
   -1.9210    0.0160    6.0917 N   0  0  0  0  0  3           0  0  0
   -3.2324    5.4228    7.6667 N   0  0  0  0  0  3           0  0  0
    4.0771   -1.1656   -0.9667 N   0  0  1  0  0  3           0  0  0
   -0.2602    6.1261    9.7296 C   0  0  0  0  0  4           0  0  0
   -0.5887    0.0000    1.2326 C   0  0  0  0  0  4           0  0  0
   -0.5874    0.0066    5.9620 C   0  0  0  0  0  4           0  0  0
   -0.5951    0.0024    3.6753 C   0  0  0  0  0  4           0  0  0
   -4.9825    3.5357    5.7983 C   0  0  0  0  0  4           0  0  0
   -4.5136    1.4619    5.1573 C   0  0  0  0  0  4           0  0  0
   -2.6279    0.0161    4.9369 C   0  0  0  0  0  4           0  0  0
   -2.0057    5.9836    8.0695 C   0  0  0  0  0  4           0  0  0
   -2.0033    0.0066    3.6694 C   0  0  0  0  0  4           0  0  0
   -1.4693    5.5851    9.2983 C   0  0  0  0  0  4           0  0  0
    0.4274    7.0567    8.9579 C   0  0  0  0  0  4           0  0  0
    0.0867    0.0000    2.4581 C   0  0  0  0  0  4           0  0  0
   -1.9800   -0.0015    1.2265 C   0  0  0  0  0  4           0  0  0
   -4.5799    2.3137    6.2885 C   0  0  0  0  0  4           0  0  0
   -1.3170    6.9192    7.2860 C   0  0  0  0  0  4           0  0  0
   -2.6819    0.0025    2.4298 C   0  0  0  0  0  4           0  0  0
   -0.1037    7.4519    7.7320 C   0  0  0  0  0  4           0  0  0
   -3.9656    5.6453    6.5139 C   0  0  0  0  0  4           0  0  0
    4.3362   -3.6411   -0.8396 C   0  0  0  0  0  4           0  0  0
    1.4278    0.0000    0.0000 C   0  0  0  0  0  4           0  0  0
    3.6530   -2.4574   -1.5132 C   0  0  0  0  0  4           0  0  0
    3.4467   -0.0000   -1.5837 C   0  0  0  0  0  4           0  0  0
    5.5145   -1.0370   -0.7352 C   0  0  0  0  0  4           0  0  0
   -4.1210    0.0303    5.1163 C   0  0  0  0  0  4           0  0  0
   -5.2413    4.8356    6.4653 C   0  0  0  0  0  4           0  0  0
    1.9220    0.0000   -1.4413 C   0  0  0  0  0  4           0  0  0
    6.3120   -1.2128   -2.0236 C   0  0  0  0  0  4           0  0  0
  1  3  2  0     0  0
  1  4  1  0     0  0
  1  5  1  0     0  0
  1  6  1  0     0  0
  2 15  1  0     0  0
  4 33  1  0     0  0
  7 16  1  0     0  0
  7 34  1  0     0  0
  8 32  2  0     0  0
  9 10  1  0     0  0
  9 19  1  0     0  0
 10 20  2  0     0  0
 11 17  2  0     0  0
 11 18  1  0     0  0
 12 17  1  0     0  0
 12 21  2  0     0  0
 13 22  1  0     0  0
 13 32  1  0     0  0
 14 35  1  0     0  0
 14 36  1  0     0  0
 14 37  1  0     0  0
 15 24  2  0     0  0
 15 25  1  0     0  0
 16 26  2  0     0  0
 16 27  1  0     0  0
 18 23  2  0     0  0
 18 26  1  0     0  0
 19 28  2  0     0  0
 19 39  1  0     0  0
 20 28  1  0     0  0
 20 38  1  0     0  0
 21 23  1  0     0  0
 21 38  1  0     0  0
 22 24  1  0     0  0
 22 29  2  0     0  0
 23 30  1  0     0  0
 25 31  2  0     0  0
 27 30  2  0     0  0
 29 31  1  0     0  0
 32 39  1  0     0  0
 33 35  1  0     0  0
 34 40  1  0     0  0
 36 40  1  0     0  0
 37 41  1  0     0  0
M  END
> <standard_type>
pIC50

> <# Confs.>
25

> <canonical_smiles>
FC1=CC(NC(CC2=CC(CC3=NC=NC4=C3C=CC(OCCCN(CCOP(O)(O)=O)CC)=C4)=NN2)=O)=CC=C1

> <standard_relation>
=

> <Publication_ID>
Wang_2009

> <predicted_activity_value>
9.455931955649724

> <actual_activity_value>
9.522878745280337

> <Compound>
1

> <standard_units>
nM

> hash
11804495725534374177

$$$$
0
XXILIB    08252103493D 0   0.00000     0.00000

 41 44  0     1  0            999 V2000
    3.7816   -5.0722   -3.5056 P   0  0  2  0  0  5           0  0  0
    0.0199   -5.6419   11.0302 F   0  0  0  0  0  1           0  0  0
    5.2503   -5.3861   -3.4938 O   0  0  0  0  0  2           0  0  0
    3.4044   -3.5562   -3.9277 O   0  0  0  0  0  2           0  0  0
    3.0500   -5.2743   -2.0767 O   0  0  0  0  0  2           0  0  0
    2.9102   -6.0037   -4.4979 O   0  0  0  0  0  2           0  0  0
   -0.0000    0.0000    0.0000 O   0  0  0  0  0  2           0  0  0
   -3.8773   -6.3708    5.7328 O   0  0  0  0  0  2           0  0  0
   -5.1954   -3.2772    4.4872 N   0  0  0  0  0  3           0  0  0
   -4.8682   -2.0506    4.0518 N   0  0  0  0  0  3           0  0  0
    0.1114    0.0012    4.8150 N   0  0  0  0  0  3           0  0  0
   -1.9210    0.0160    6.0917 N   0  0  0  0  0  3           0  0  0
   -3.4400   -5.3288    7.7644 N   0  0  0  0  0  3           0  0  0
    3.8917    0.0000   -2.9840 N   0  0  1  0  0  3           0  0  0
   -0.5009   -6.0553    9.8664 C   0  0  0  0  0  4           0  0  0
   -0.5887   -0.0000    1.2326 C   0  0  0  0  0  4           0  0  0
   -0.5874    0.0066    5.9620 C   0  0  0  0  0  4           0  0  0
   -0.5951    0.0024    3.6753 C   0  0  0  0  0  4           0  0  0
   -5.0979   -3.4358    5.8422 C   0  0  0  0  0  4           0  0  0
   -4.5390   -1.3936    5.1726 C   0  0  0  0  0  4           0  0  0
   -2.6279    0.0161    4.9369 C   0  0  0  0  0  4           0  0  0
   -2.2381   -5.9204    8.1970 C   0  0  0  0  0  4           0  0  0
   -2.0033    0.0066    3.6694 C   0  0  0  0  0  4           0  0  0
   -1.6929   -5.4949    9.4128 C   0  0  0  0  0  4           0  0  0
    0.1587   -7.0349    9.1319 C   0  0  0  0  0  4           0  0  0
    0.0867   -0.0000    2.4581 C   0  0  0  0  0  4           0  0  0
   -1.9800   -0.0015    1.2265 C   0  0  0  0  0  4           0  0  0
   -4.6804   -2.2139    6.3201 C   0  0  0  0  0  4           0  0  0
   -1.5797   -6.9086    7.4529 C   0  0  0  0  0  4           0  0  0
   -2.6819    0.0025    2.4298 C   0  0  0  0  0  4           0  0  0
   -0.3849   -7.4624    7.9224 C   0  0  0  0  0  4           0  0  0
   -4.1753   -5.5680    6.6164 C   0  0  0  0  0  4           0  0  0
    3.9072   -2.4872   -3.1418 C   0  0  0  0  0  4           0  0  0
    1.4278   -0.0000    0.0000 C   0  0  0  0  0  4           0  0  0
    3.4211   -1.1691   -3.7317 C   0  0  0  0  0  4           0  0  0
    3.4467    0.0000   -1.5837 C   0  0  0  0  0  4           0  0  0
    5.3504    0.1661   -3.0452 C   0  0  0  0  0  4           0  0  0
   -4.1210    0.0303    5.1163 C   0  0  0  0  0  4           0  0  0
   -5.4184   -4.7121    6.5277 C   0  0  0  0  0  4           0  0  0
    1.9220    0.0000   -1.4413 C   0  0  0  0  0  4           0  0  0
    5.8388    0.3426   -4.4795 C   0  0  0  0  0  4           0  0  0
  1  3  2  0     0  0
  1  4  1  0     0  0
  1  5  1  0     0  0
  1  6  1  0     0  0
  2 15  1  0     0  0
  4 33  1  0     0  0
  7 16  1  0     0  0
  7 34  1  0     0  0
  8 32  2  0     0  0
  9 10  1  0     0  0
  9 19  1  0     0  0
 10 20  2  0     0  0
 11 17  2  0     0  0
 11 18  1  0     0  0
 12 17  1  0     0  0
 12 21  2  0     0  0
 13 22  1  0     0  0
 13 32  1  0     0  0
 14 35  1  0     0  0
 14 36  1  0     0  0
 14 37  1  0     0  0
 15 24  2  0     0  0
 15 25  1  0     0  0
 16 26  2  0     0  0
 16 27  1  0     0  0
 18 23  2  0     0  0
 18 26  1  0     0  0
 19 28  2  0     0  0
 19 39  1  0     0  0
 20 28  1  0     0  0
 20 38  1  0     0  0
 21 23  1  0     0  0
 21 38  1  0     0  0
 22 24  1  0     0  0
 22 29  2  0     0  0
 23 30  1  0     0  0
 25 31  2  0     0  0
 27 30  2  0     0  0
 29 31  1  0     0  0
 32 39  1  0     0  0
 33 35  1  0     0  0
 34 40  1  0     0  0
 36 40  1  0     0  0
 37 41  1  0     0  0
M  END
> <standard_type>
pIC50

> <# Confs.>
25

> <canonical_smiles>
FC1=CC(NC(CC2=CC(CC3=NC=NC4=C3C=CC(OCCCN(CCOP(O)(O)=O)CC)=C4)=NN2)=O)=CC=C1

> <standard_relation>
=

> <Publication_ID>
Wang_2009

> <predicted_activity_value>
9.455931955649724

> <actual_activity_value>
9.522878745280337

> <Compound>
1

> <standard_units>
nM

> hash
11804495725534374177

$$$$
0
XXILIB    08252103493D 0   0.00000     0.00000

 41 44  0     1  0            999 V2000
    2.0321   -1.3472   -8.0689 P   0  0  2  0  0  5           0  0  0
    0.0199   -5.6419   11.0302 F   0  0  0  0  0  1           0  0  0
    1.5983   -0.2651   -9.0157 O   0  0  0  0  0  2           0  0  0
    1.5993   -1.1266   -6.5254 O   0  0  0  0  0  2           0  0  0
    3.6341   -1.5630   -7.9994 O   0  0  0  0  0  2           0  0  0
    1.4805   -2.8194   -8.4436 O   0  0  0  0  0  2           0  0  0
   -0.0000    0.0000    0.0000 O   0  0  0  0  0  2           0  0  0
   -3.8773   -6.3708    5.7328 O   0  0  0  0  0  2           0  0  0
   -5.1954   -3.2772    4.4872 N   0  0  0  0  0  3           0  0  0
   -4.8682   -2.0506    4.0518 N   0  0  0  0  0  3           0  0  0
    0.1114    0.0012    4.8150 N   0  0  0  0  0  3           0  0  0
   -1.9210    0.0160    6.0917 N   0  0  0  0  0  3           0  0  0
   -3.4400   -5.3288    7.7644 N   0  0  0  0  0  3           0  0  0
    1.9553    1.1805   -3.6399 N   0  0  1  0  0  3           0  0  0
   -0.5009   -6.0553    9.8664 C   0  0  0  0  0  4           0  0  0
   -0.5887   -0.0000    1.2326 C   0  0  0  0  0  4           0  0  0
   -0.5874    0.0066    5.9620 C   0  0  0  0  0  4           0  0  0
   -0.5951    0.0024    3.6753 C   0  0  0  0  0  4           0  0  0
   -5.0979   -3.4358    5.8422 C   0  0  0  0  0  4           0  0  0
   -4.5390   -1.3936    5.1726 C   0  0  0  0  0  4           0  0  0
   -2.6279    0.0161    4.9369 C   0  0  0  0  0  4           0  0  0
   -2.2381   -5.9204    8.1970 C   0  0  0  0  0  4           0  0  0
   -2.0033    0.0066    3.6694 C   0  0  0  0  0  4           0  0  0
   -1.6929   -5.4949    9.4128 C   0  0  0  0  0  4           0  0  0
    0.1587   -7.0349    9.1319 C   0  0  0  0  0  4           0  0  0
    0.0867   -0.0000    2.4581 C   0  0  0  0  0  4           0  0  0
   -1.9800   -0.0015    1.2265 C   0  0  0  0  0  4           0  0  0
   -4.6804   -2.2139    6.3201 C   0  0  0  0  0  4           0  0  0
   -1.5797   -6.9086    7.4529 C   0  0  0  0  0  4           0  0  0
   -2.6819    0.0025    2.4298 C   0  0  0  0  0  4           0  0  0
   -0.3849   -7.4624    7.9224 C   0  0  0  0  0  4           0  0  0
   -4.1753   -5.5680    6.6164 C   0  0  0  0  0  4           0  0  0
    2.0624    0.0315   -5.8490 C   0  0  0  0  0  4           0  0  0
    1.4278    0.0000    0.0000 C   0  0  0  0  0  4           0  0  0
    1.5281    0.0173   -4.4221 C   0  0  0  0  0  4           0  0  0
    1.4657    1.2091   -2.2629 C   0  0  0  0  0  4           0  0  0
    1.8810    2.4581   -4.3458 C   0  0  0  0  0  4           0  0  0
   -4.1210    0.0303    5.1163 C   0  0  0  0  0  4           0  0  0
   -5.4184   -4.7121    6.5277 C   0  0  0  0  0  4           0  0  0
    1.9220    0.0000   -1.4413 C   0  0  0  0  0  4           0  0  0
    0.4577    2.7731   -4.7951 C   0  0  0  0  0  4           0  0  0
  1  3  2  0     0  0
  1  4  1  0     0  0
  1  5  1  0     0  0
  1  6  1  0     0  0
  2 15  1  0     0  0
  4 33  1  0     0  0
  7 16  1  0     0  0
  7 34  1  0     0  0
  8 32  2  0     0  0
  9 10  1  0     0  0
  9 19  1  0     0  0
 10 20  2  0     0  0
 11 17  2  0     0  0
 11 18  1  0     0  0
 12 17  1  0     0  0
 12 21  2  0     0  0
 13 22  1  0     0  0
 13 32  1  0     0  0
 14 35  1  0     0  0
 14 36  1  0     0  0
 14 37  1  0     0  0
 15 24  2  0     0  0
 15 25  1  0     0  0
 16 26  2  0     0  0
 16 27  1  0     0  0
 18 23  2  0     0  0
 18 26  1  0     0  0
 19 28  2  0     0  0
 19 39  1  0     0  0
 20 28  1  0     0  0
 20 38  1  0     0  0
 21 23  1  0     0  0
 21 38  1  0     0  0
 22 24  1  0     0  0
 22 29  2  0     0  0
 23 30  1  0     0  0
 25 31  2  0     0  0
 27 30  2  0     0  0
 29 31  1  0     0  0
 32 39  1  0     0  0
 33 35  1  0     0  0
 34 40  1  0     0  0
 36 40  1  0     0  0
 37 41  1  0     0  0
M  END
> <standard_type>
pIC50

> <# Confs.>
25

> <canonical_smiles>
FC1=CC(NC(CC2=CC(CC3=NC=NC4=C3C=CC(OCCCN(CCOP(O)(O)=O)CC)=C4)=NN2)=O)=CC=C1

> <standard_relation>
=

> <Publication_ID>
Wang_2009

> <predicted_activity_value>
9.455931955649724

> <actual_activity_value>
9.522878745280337

> <Compound>
1

> <standard_units>
nM

> hash
11804495725534374177

$$$$
0
XXILIB    08252103493D 0   0.00000     0.00000

 41 44  0     1  0            999 V2000
    2.0321   -1.3472   -8.0689 P   0  0  2  0  0  5           0  0  0
   -9.2273    3.0951   12.1040 F   0  0  0  0  0  1           0  0  0
    1.5983   -0.2651   -9.0157 O   0  0  0  0  0  2           0  0  0
    1.5993   -1.1266   -6.5254 O   0  0  0  0  0  2           0  0  0
    3.6341   -1.5630   -7.9994 O   0  0  0  0  0  2           0  0  0
    1.4805   -2.8194   -8.4436 O   0  0  0  0  0  2           0  0  0
    0.0000    0.0000    0.0000 O   0  0  0  0  0  2           0  0  0
   -7.5532    5.3798    6.1240 O   0  0  0  0  0  2           0  0  0
   -5.1127    3.3561    4.4487 N   0  0  0  0  0  3           0  0  0
   -4.8313    2.1126    4.0294 N   0  0  0  0  0  3           0  0  0
    0.1114    0.0012    4.8150 N   0  0  0  0  0  3           0  0  0
   -1.9210    0.0160    6.0917 N   0  0  0  0  0  3           0  0  0
   -6.9247    4.4104    8.1413 N   0  0  0  0  0  3           0  0  0
    1.9553    1.1805   -3.6399 N   0  0  1  0  0  3           0  0  0
   -9.2685    3.6364   10.8785 C   0  0  0  0  0  4           0  0  0
   -0.5887    0.0000    1.2326 C   0  0  0  0  0  4           0  0  0
   -0.5874    0.0066    5.9620 C   0  0  0  0  0  4           0  0  0
   -0.5951    0.0024    3.6753 C   0  0  0  0  0  4           0  0  0
   -4.9825    3.5357    5.7983 C   0  0  0  0  0  4           0  0  0
   -4.5136    1.4619    5.1573 C   0  0  0  0  0  4           0  0  0
   -2.6279    0.0161    4.9369 C   0  0  0  0  0  4           0  0  0
   -8.1306    4.3135    8.8612 C   0  0  0  0  0  4           0  0  0
   -2.0033    0.0066    3.6694 C   0  0  0  0  0  4           0  0  0
   -8.0918    3.7530   10.1420 C   0  0  0  0  0  4           0  0  0
  -10.4854    4.0702   10.3634 C   0  0  0  0  0  4           0  0  0
    0.0867    0.0000    2.4581 C   0  0  0  0  0  4           0  0  0
   -1.9800   -0.0015    1.2265 C   0  0  0  0  0  4           0  0  0
   -4.5799    2.3137    6.2885 C   0  0  0  0  0  4           0  0  0
   -9.3530    4.7547    8.3370 C   0  0  0  0  0  4           0  0  0
   -2.6819    0.0025    2.4298 C   0  0  0  0  0  4           0  0  0
  -10.5252    4.6321    9.0891 C   0  0  0  0  0  4           0  0  0
   -6.6945    4.9172    6.8741 C   0  0  0  0  0  4           0  0  0
    2.0624    0.0315   -5.8490 C   0  0  0  0  0  4           0  0  0
    1.4278    0.0000    0.0000 C   0  0  0  0  0  4           0  0  0
    1.5281    0.0173   -4.4221 C   0  0  0  0  0  4           0  0  0
    1.4657    1.2091   -2.2629 C   0  0  0  0  0  4           0  0  0
    1.8810    2.4581   -4.3458 C   0  0  0  0  0  4           0  0  0
   -4.1210    0.0303    5.1163 C   0  0  0  0  0  4           0  0  0
   -5.2413    4.8356    6.4653 C   0  0  0  0  0  4           0  0  0
    1.9220    0.0000   -1.4413 C   0  0  0  0  0  4           0  0  0
    0.4577    2.7731   -4.7951 C   0  0  0  0  0  4           0  0  0
  1  3  2  0     0  0
  1  4  1  0     0  0
  1  5  1  0     0  0
  1  6  1  0     0  0
  2 15  1  0     0  0
  4 33  1  0     0  0
  7 16  1  0     0  0
  7 34  1  0     0  0
  8 32  2  0     0  0
  9 10  1  0     0  0
  9 19  1  0     0  0
 10 20  2  0     0  0
 11 17  2  0     0  0
 11 18  1  0     0  0
 12 17  1  0     0  0
 12 21  2  0     0  0
 13 22  1  0     0  0
 13 32  1  0     0  0
 14 35  1  0     0  0
 14 36  1  0     0  0
 14 37  1  0     0  0
 15 24  2  0     0  0
 15 25  1  0     0  0
 16 26  2  0     0  0
 16 27  1  0     0  0
 18 23  2  0     0  0
 18 26  1  0     0  0
 19 28  2  0     0  0
 19 39  1  0     0  0
 20 28  1  0     0  0
 20 38  1  0     0  0
 21 23  1  0     0  0
 21 38  1  0     0  0
 22 24  1  0     0  0
 22 29  2  0     0  0
 23 30  1  0     0  0
 25 31  2  0     0  0
 27 30  2  0     0  0
 29 31  1  0     0  0
 32 39  1  0     0  0
 33 35  1  0     0  0
 34 40  1  0     0  0
 36 40  1  0     0  0
 37 41  1  0     0  0
M  END
> <standard_type>
pIC50

> <# Confs.>
25

> <canonical_smiles>
FC1=CC(NC(CC2=CC(CC3=NC=NC4=C3C=CC(OCCCN(CCOP(O)(O)=O)CC)=C4)=NN2)=O)=CC=C1

> <standard_relation>
=

> <Publication_ID>
Wang_2009

> <predicted_activity_value>
9.455931955649724

> <actual_activity_value>
9.522878745280337

> <Compound>
1

> <standard_units>
nM

> hash
11804495725534374177

$$$$
0
XXILIB    08252103493D 0   0.00000     0.00000

 41 44  0     1  0            999 V2000
    3.7816   -5.0722   -3.5056 P   0  0  2  0  0  5           0  0  0
   -9.2273    3.0951   12.1040 F   0  0  0  0  0  1           0  0  0
    5.2503   -5.3861   -3.4938 O   0  0  0  0  0  2           0  0  0
    3.4044   -3.5562   -3.9277 O   0  0  0  0  0  2           0  0  0
    3.0500   -5.2743   -2.0767 O   0  0  0  0  0  2           0  0  0
    2.9102   -6.0037   -4.4979 O   0  0  0  0  0  2           0  0  0
    0.0000    0.0000    0.0000 O   0  0  0  0  0  2           0  0  0
   -7.5532    5.3798    6.1240 O   0  0  0  0  0  2           0  0  0
   -5.1127    3.3561    4.4487 N   0  0  0  0  0  3           0  0  0
   -4.8313    2.1126    4.0294 N   0  0  0  0  0  3           0  0  0
    0.1114    0.0012    4.8150 N   0  0  0  0  0  3           0  0  0
   -1.9210    0.0160    6.0917 N   0  0  0  0  0  3           0  0  0
   -6.9247    4.4104    8.1413 N   0  0  0  0  0  3           0  0  0
    3.8917    0.0000   -2.9840 N   0  0  1  0  0  3           0  0  0
   -9.2685    3.6364   10.8785 C   0  0  0  0  0  4           0  0  0
   -0.5887    0.0000    1.2326 C   0  0  0  0  0  4           0  0  0
   -0.5874    0.0066    5.9620 C   0  0  0  0  0  4           0  0  0
   -0.5951    0.0024    3.6753 C   0  0  0  0  0  4           0  0  0
   -4.9825    3.5357    5.7983 C   0  0  0  0  0  4           0  0  0
   -4.5136    1.4619    5.1573 C   0  0  0  0  0  4           0  0  0
   -2.6279    0.0161    4.9369 C   0  0  0  0  0  4           0  0  0
   -8.1306    4.3135    8.8612 C   0  0  0  0  0  4           0  0  0
   -2.0033    0.0066    3.6694 C   0  0  0  0  0  4           0  0  0
   -8.0918    3.7530   10.1420 C   0  0  0  0  0  4           0  0  0
  -10.4854    4.0702   10.3634 C   0  0  0  0  0  4           0  0  0
    0.0867    0.0000    2.4581 C   0  0  0  0  0  4           0  0  0
   -1.9800   -0.0015    1.2265 C   0  0  0  0  0  4           0  0  0
   -4.5799    2.3137    6.2885 C   0  0  0  0  0  4           0  0  0
   -9.3530    4.7547    8.3370 C   0  0  0  0  0  4           0  0  0
   -2.6819    0.0025    2.4298 C   0  0  0  0  0  4           0  0  0
  -10.5252    4.6321    9.0891 C   0  0  0  0  0  4           0  0  0
   -6.6945    4.9172    6.8741 C   0  0  0  0  0  4           0  0  0
    3.9072   -2.4872   -3.1418 C   0  0  0  0  0  4           0  0  0
    1.4278   -0.0000    0.0000 C   0  0  0  0  0  4           0  0  0
    3.4211   -1.1691   -3.7317 C   0  0  0  0  0  4           0  0  0
    3.4467    0.0000   -1.5837 C   0  0  0  0  0  4           0  0  0
    5.3504    0.1661   -3.0452 C   0  0  0  0  0  4           0  0  0
   -4.1210    0.0303    5.1163 C   0  0  0  0  0  4           0  0  0
   -5.2413    4.8356    6.4653 C   0  0  0  0  0  4           0  0  0
    1.9220    0.0000   -1.4413 C   0  0  0  0  0  4           0  0  0
    5.8388    0.3426   -4.4795 C   0  0  0  0  0  4           0  0  0
  1  3  2  0     0  0
  1  4  1  0     0  0
  1  5  1  0     0  0
  1  6  1  0     0  0
  2 15  1  0     0  0
  4 33  1  0     0  0
  7 16  1  0     0  0
  7 34  1  0     0  0
  8 32  2  0     0  0
  9 10  1  0     0  0
  9 19  1  0     0  0
 10 20  2  0     0  0
 11 17  2  0     0  0
 11 18  1  0     0  0
 12 17  1  0     0  0
 12 21  2  0     0  0
 13 22  1  0     0  0
 13 32  1  0     0  0
 14 35  1  0     0  0
 14 36  1  0     0  0
 14 37  1  0     0  0
 15 24  2  0     0  0
 15 25  1  0     0  0
 16 26  2  0     0  0
 16 27  1  0     0  0
 18 23  2  0     0  0
 18 26  1  0     0  0
 19 28  2  0     0  0
 19 39  1  0     0  0
 20 28  1  0     0  0
 20 38  1  0     0  0
 21 23  1  0     0  0
 21 38  1  0     0  0
 22 24  1  0     0  0
 22 29  2  0     0  0
 23 30  1  0     0  0
 25 31  2  0     0  0
 27 30  2  0     0  0
 29 31  1  0     0  0
 32 39  1  0     0  0
 33 35  1  0     0  0
 34 40  1  0     0  0
 36 40  1  0     0  0
 37 41  1  0     0  0
M  END
> <standard_type>
pIC50

> <# Confs.>
25

> <canonical_smiles>
FC1=CC(NC(CC2=CC(CC3=NC=NC4=C3C=CC(OCCCN(CCOP(O)(O)=O)CC)=C4)=NN2)=O)=CC=C1

> <standard_relation>
=

> <Publication_ID>
Wang_2009

> <predicted_activity_value>
9.455931955649724

> <actual_activity_value>
9.522878745280337

> <Compound>
1

> <standard_units>
nM

> hash
11804495725534374177

$$$$
0
XXILIB    08252103493D 0   0.00000     0.00000

 41 44  0     1  0            999 V2000
    3.7816   -5.0722   -3.5056 P   0  0  2  0  0  5           0  0  0
   -9.4263   -2.8427   12.1092 F   0  0  0  0  0  1           0  0  0
    5.2503   -5.3861   -3.4938 O   0  0  0  0  0  2           0  0  0
    3.4044   -3.5562   -3.9277 O   0  0  0  0  0  2           0  0  0
    3.0500   -5.2743   -2.0767 O   0  0  0  0  0  2           0  0  0
    2.9102   -6.0037   -4.4979 O   0  0  0  0  0  2           0  0  0
   -0.0000    0.0000    0.0000 O   0  0  0  0  0  2           0  0  0
   -7.7423   -5.1758    6.1507 O   0  0  0  0  0  2           0  0  0
   -5.1954   -3.2772    4.4872 N   0  0  0  0  0  3           0  0  0
   -4.8682   -2.0506    4.0518 N   0  0  0  0  0  3           0  0  0
    0.1114    0.0012    4.8150 N   0  0  0  0  0  3           0  0  0
   -1.9210    0.0160    6.0917 N   0  0  0  0  0  3           0  0  0
   -7.1125   -4.2207    8.1745 N   0  0  0  0  0  3           0  0  0
    3.8917    0.0000   -2.9840 N   0  0  1  0  0  3           0  0  0
   -9.4693   -3.3690   10.8772 C   0  0  0  0  0  4           0  0  0
   -0.5887   -0.0000    1.2326 C   0  0  0  0  0  4           0  0  0
   -0.5874    0.0066    5.9620 C   0  0  0  0  0  4           0  0  0
   -0.5951    0.0024    3.6753 C   0  0  0  0  0  4           0  0  0
   -5.0979   -3.4358    5.8422 C   0  0  0  0  0  4           0  0  0
   -4.5390   -1.3936    5.1726 C   0  0  0  0  0  4           0  0  0
   -2.6279    0.0161    4.9369 C   0  0  0  0  0  4           0  0  0
   -8.3262   -4.0741    8.8724 C   0  0  0  0  0  4           0  0  0
   -2.0033    0.0066    3.6694 C   0  0  0  0  0  4           0  0  0
   -8.2867   -3.5217   10.1568 C   0  0  0  0  0  4           0  0  0
  -10.6931   -3.7548   10.3410 C   0  0  0  0  0  4           0  0  0
    0.0867   -0.0000    2.4581 C   0  0  0  0  0  4           0  0  0
   -1.9800   -0.0015    1.2265 C   0  0  0  0  0  4           0  0  0
   -4.6804   -2.2139    6.3201 C   0  0  0  0  0  4           0  0  0
   -9.5562   -4.4629    8.3252 C   0  0  0  0  0  4           0  0  0
   -2.6819    0.0025    2.4298 C   0  0  0  0  0  4           0  0  0
  -10.7346   -4.3018    9.0603 C   0  0  0  0  0  4           0  0  0
   -6.8812   -4.7314    6.9090 C   0  0  0  0  0  4           0  0  0
    3.9072   -2.4872   -3.1418 C   0  0  0  0  0  4           0  0  0
    1.4278   -0.0000    0.0000 C   0  0  0  0  0  4           0  0  0
    3.4211   -1.1691   -3.7317 C   0  0  0  0  0  4           0  0  0
    3.4467    0.0000   -1.5837 C   0  0  0  0  0  4           0  0  0
    5.3504    0.1661   -3.0452 C   0  0  0  0  0  4           0  0  0
   -4.1210    0.0303    5.1163 C   0  0  0  0  0  4           0  0  0
   -5.4184   -4.7121    6.5277 C   0  0  0  0  0  4           0  0  0
    1.9220    0.0000   -1.4413 C   0  0  0  0  0  4           0  0  0
    5.8388    0.3426   -4.4795 C   0  0  0  0  0  4           0  0  0
  1  3  2  0     0  0
  1  4  1  0     0  0
  1  5  1  0     0  0
  1  6  1  0     0  0
  2 15  1  0     0  0
  4 33  1  0     0  0
  7 16  1  0     0  0
  7 34  1  0     0  0
  8 32  2  0     0  0
  9 10  1  0     0  0
  9 19  1  0     0  0
 10 20  2  0     0  0
 11 17  2  0     0  0
 11 18  1  0     0  0
 12 17  1  0     0  0
 12 21  2  0     0  0
 13 22  1  0     0  0
 13 32  1  0     0  0
 14 35  1  0     0  0
 14 36  1  0     0  0
 14 37  1  0     0  0
 15 24  2  0     0  0
 15 25  1  0     0  0
 16 26  2  0     0  0
 16 27  1  0     0  0
 18 23  2  0     0  0
 18 26  1  0     0  0
 19 28  2  0     0  0
 19 39  1  0     0  0
 20 28  1  0     0  0
 20 38  1  0     0  0
 21 23  1  0     0  0
 21 38  1  0     0  0
 22 24  1  0     0  0
 22 29  2  0     0  0
 23 30  1  0     0  0
 25 31  2  0     0  0
 27 30  2  0     0  0
 29 31  1  0     0  0
 32 39  1  0     0  0
 33 35  1  0     0  0
 34 40  1  0     0  0
 36 40  1  0     0  0
 37 41  1  0     0  0
M  END
> <standard_type>
pIC50

> <# Confs.>
25

> <canonical_smiles>
FC1=CC(NC(CC2=CC(CC3=NC=NC4=C3C=CC(OCCCN(CCOP(O)(O)=O)CC)=C4)=NN2)=O)=CC=C1

> <standard_relation>
=

> <Publication_ID>
Wang_2009

> <predicted_activity_value>
9.455931955649724

> <actual_activity_value>
9.522878745280337

> <Compound>
1

> <standard_units>
nM

> hash
11804495725534374177

$$$$
0
XXILIB    08252103493D 0   0.00000     0.00000

 41 44  0     1  0            999 V2000
    4.6333   -4.7904    1.4888 P   0  0  2  0  0  5           0  0  0
    0.0199   -5.6419   11.0302 F   0  0  0  0  0  1           0  0  0
    4.2365   -6.1901    1.1160 O   0  0  0  0  0  2           0  0  0
    4.0233   -3.6265    0.5443 O   0  0  0  0  0  2           0  0  0
    6.2288   -4.5240    1.4573 O   0  0  0  0  0  2           0  0  0
    4.2199   -4.3593    2.9905 O   0  0  0  0  0  2           0  0  0
   -0.0000    0.0000    0.0000 O   0  0  0  0  0  2           0  0  0
   -3.8773   -6.3708    5.7328 O   0  0  0  0  0  2           0  0  0
   -5.1954   -3.2772    4.4872 N   0  0  0  0  0  3           0  0  0
   -4.8682   -2.0506    4.0518 N   0  0  0  0  0  3           0  0  0
    0.1114    0.0012    4.8150 N   0  0  0  0  0  3           0  0  0
   -1.9210    0.0160    6.0917 N   0  0  0  0  0  3           0  0  0
   -3.4400   -5.3288    7.7644 N   0  0  0  0  0  3           0  0  0
    4.0771   -1.1656   -0.9667 N   0  0  1  0  0  3           0  0  0
   -0.5009   -6.0553    9.8664 C   0  0  0  0  0  4           0  0  0
   -0.5887   -0.0000    1.2326 C   0  0  0  0  0  4           0  0  0
   -0.5874    0.0066    5.9620 C   0  0  0  0  0  4           0  0  0
   -0.5951    0.0024    3.6753 C   0  0  0  0  0  4           0  0  0
   -5.0979   -3.4358    5.8422 C   0  0  0  0  0  4           0  0  0
   -4.5390   -1.3936    5.1726 C   0  0  0  0  0  4           0  0  0
   -2.6279    0.0161    4.9369 C   0  0  0  0  0  4           0  0  0
   -2.2381   -5.9204    8.1970 C   0  0  0  0  0  4           0  0  0
   -2.0033    0.0066    3.6694 C   0  0  0  0  0  4           0  0  0
   -1.6929   -5.4949    9.4128 C   0  0  0  0  0  4           0  0  0
    0.1587   -7.0349    9.1319 C   0  0  0  0  0  4           0  0  0
    0.0867   -0.0000    2.4581 C   0  0  0  0  0  4           0  0  0
   -1.9800   -0.0015    1.2265 C   0  0  0  0  0  4           0  0  0
   -4.6804   -2.2139    6.3201 C   0  0  0  0  0  4           0  0  0
   -1.5797   -6.9086    7.4529 C   0  0  0  0  0  4           0  0  0
   -2.6819    0.0025    2.4298 C   0  0  0  0  0  4           0  0  0
   -0.3849   -7.4624    7.9224 C   0  0  0  0  0  4           0  0  0
   -4.1753   -5.5680    6.6164 C   0  0  0  0  0  4           0  0  0
    4.3362   -3.6411   -0.8396 C   0  0  0  0  0  4           0  0  0
    1.4278    0.0000    0.0000 C   0  0  0  0  0  4           0  0  0
    3.6530   -2.4574   -1.5132 C   0  0  0  0  0  4           0  0  0
    3.4467   -0.0000   -1.5837 C   0  0  0  0  0  4           0  0  0
    5.5145   -1.0370   -0.7352 C   0  0  0  0  0  4           0  0  0
   -4.1210    0.0303    5.1163 C   0  0  0  0  0  4           0  0  0
   -5.4184   -4.7121    6.5277 C   0  0  0  0  0  4           0  0  0
    1.9220    0.0000   -1.4413 C   0  0  0  0  0  4           0  0  0
    6.3120   -1.2128   -2.0236 C   0  0  0  0  0  4           0  0  0
  1  3  2  0     0  0
  1  4  1  0     0  0
  1  5  1  0     0  0
  1  6  1  0     0  0
  2 15  1  0     0  0
  4 33  1  0     0  0
  7 16  1  0     0  0
  7 34  1  0     0  0
  8 32  2  0     0  0
  9 10  1  0     0  0
  9 19  1  0     0  0
 10 20  2  0     0  0
 11 17  2  0     0  0
 11 18  1  0     0  0
 12 17  1  0     0  0
 12 21  2  0     0  0
 13 22  1  0     0  0
 13 32  1  0     0  0
 14 35  1  0     0  0
 14 36  1  0     0  0
 14 37  1  0     0  0
 15 24  2  0     0  0
 15 25  1  0     0  0
 16 26  2  0     0  0
 16 27  1  0     0  0
 18 23  2  0     0  0
 18 26  1  0     0  0
 19 28  2  0     0  0
 19 39  1  0     0  0
 20 28  1  0     0  0
 20 38  1  0     0  0
 21 23  1  0     0  0
 21 38  1  0     0  0
 22 24  1  0     0  0
 22 29  2  0     0  0
 23 30  1  0     0  0
 25 31  2  0     0  0
 27 30  2  0     0  0
 29 31  1  0     0  0
 32 39  1  0     0  0
 33 35  1  0     0  0
 34 40  1  0     0  0
 36 40  1  0     0  0
 37 41  1  0     0  0
M  END
> <standard_type>
pIC50

> <# Confs.>
25

> <canonical_smiles>
FC1=CC(NC(CC2=CC(CC3=NC=NC4=C3C=CC(OCCCN(CCOP(O)(O)=O)CC)=C4)=NN2)=O)=CC=C1

> <standard_relation>
=

> <Publication_ID>
Wang_2009

> <predicted_activity_value>
9.455931955649724

> <actual_activity_value>
9.522878745280337

> <Compound>
1

> <standard_units>
nM

> hash
11804495725534374177

$$$$
0
XXILIB    08252103493D 0   0.00000     0.00000

 41 44  0     1  0            999 V2000
    2.0321   -1.3472   -8.0689 P   0  0  2  0  0  5           0  0  0
   -9.4263   -2.8427   12.1092 F   0  0  0  0  0  1           0  0  0
    1.5983   -0.2651   -9.0157 O   0  0  0  0  0  2           0  0  0
    1.5993   -1.1266   -6.5254 O   0  0  0  0  0  2           0  0  0
    3.6341   -1.5630   -7.9994 O   0  0  0  0  0  2           0  0  0
    1.4805   -2.8194   -8.4436 O   0  0  0  0  0  2           0  0  0
   -0.0000    0.0000    0.0000 O   0  0  0  0  0  2           0  0  0
   -7.7423   -5.1758    6.1507 O   0  0  0  0  0  2           0  0  0
   -5.1954   -3.2772    4.4872 N   0  0  0  0  0  3           0  0  0
   -4.8682   -2.0506    4.0518 N   0  0  0  0  0  3           0  0  0
    0.1114    0.0012    4.8150 N   0  0  0  0  0  3           0  0  0
   -1.9210    0.0160    6.0917 N   0  0  0  0  0  3           0  0  0
   -7.1125   -4.2207    8.1745 N   0  0  0  0  0  3           0  0  0
    1.9553    1.1805   -3.6399 N   0  0  1  0  0  3           0  0  0
   -9.4693   -3.3690   10.8772 C   0  0  0  0  0  4           0  0  0
   -0.5887   -0.0000    1.2326 C   0  0  0  0  0  4           0  0  0
   -0.5874    0.0066    5.9620 C   0  0  0  0  0  4           0  0  0
   -0.5951    0.0024    3.6753 C   0  0  0  0  0  4           0  0  0
   -5.0979   -3.4358    5.8422 C   0  0  0  0  0  4           0  0  0
   -4.5390   -1.3936    5.1726 C   0  0  0  0  0  4           0  0  0
   -2.6279    0.0161    4.9369 C   0  0  0  0  0  4           0  0  0
   -8.3262   -4.0741    8.8724 C   0  0  0  0  0  4           0  0  0
   -2.0033    0.0066    3.6694 C   0  0  0  0  0  4           0  0  0
   -8.2867   -3.5217   10.1568 C   0  0  0  0  0  4           0  0  0
  -10.6931   -3.7548   10.3410 C   0  0  0  0  0  4           0  0  0
    0.0867   -0.0000    2.4581 C   0  0  0  0  0  4           0  0  0
   -1.9800   -0.0015    1.2265 C   0  0  0  0  0  4           0  0  0
   -4.6804   -2.2139    6.3201 C   0  0  0  0  0  4           0  0  0
   -9.5562   -4.4629    8.3252 C   0  0  0  0  0  4           0  0  0
   -2.6819    0.0025    2.4298 C   0  0  0  0  0  4           0  0  0
  -10.7346   -4.3018    9.0603 C   0  0  0  0  0  4           0  0  0
   -6.8812   -4.7314    6.9090 C   0  0  0  0  0  4           0  0  0
    2.0624    0.0315   -5.8490 C   0  0  0  0  0  4           0  0  0
    1.4278    0.0000    0.0000 C   0  0  0  0  0  4           0  0  0
    1.5281    0.0173   -4.4221 C   0  0  0  0  0  4           0  0  0
    1.4657    1.2091   -2.2629 C   0  0  0  0  0  4           0  0  0
    1.8810    2.4581   -4.3458 C   0  0  0  0  0  4           0  0  0
   -4.1210    0.0303    5.1163 C   0  0  0  0  0  4           0  0  0
   -5.4184   -4.7121    6.5277 C   0  0  0  0  0  4           0  0  0
    1.9220    0.0000   -1.4413 C   0  0  0  0  0  4           0  0  0
    0.4577    2.7731   -4.7951 C   0  0  0  0  0  4           0  0  0
  1  3  2  0     0  0
  1  4  1  0     0  0
  1  5  1  0     0  0
  1  6  1  0     0  0
  2 15  1  0     0  0
  4 33  1  0     0  0
  7 16  1  0     0  0
  7 34  1  0     0  0
  8 32  2  0     0  0
  9 10  1  0     0  0
  9 19  1  0     0  0
 10 20  2  0     0  0
 11 17  2  0     0  0
 11 18  1  0     0  0
 12 17  1  0     0  0
 12 21  2  0     0  0
 13 22  1  0     0  0
 13 32  1  0     0  0
 14 35  1  0     0  0
 14 36  1  0     0  0
 14 37  1  0     0  0
 15 24  2  0     0  0
 15 25  1  0     0  0
 16 26  2  0     0  0
 16 27  1  0     0  0
 18 23  2  0     0  0
 18 26  1  0     0  0
 19 28  2  0     0  0
 19 39  1  0     0  0
 20 28  1  0     0  0
 20 38  1  0     0  0
 21 23  1  0     0  0
 21 38  1  0     0  0
 22 24  1  0     0  0
 22 29  2  0     0  0
 23 30  1  0     0  0
 25 31  2  0     0  0
 27 30  2  0     0  0
 29 31  1  0     0  0
 32 39  1  0     0  0
 33 35  1  0     0  0
 34 40  1  0     0  0
 36 40  1  0     0  0
 37 41  1  0     0  0
M  END
> <standard_type>
pIC50

> <# Confs.>
25

> <canonical_smiles>
FC1=CC(NC(CC2=CC(CC3=NC=NC4=C3C=CC(OCCCN(CCOP(O)(O)=O)CC)=C4)=NN2)=O)=CC=C1

> <standard_relation>
=

> <Publication_ID>
Wang_2009

> <predicted_activity_value>
9.455931955649724

> <actual_activity_value>
9.522878745280337

> <Compound>
1

> <standard_units>
nM

> hash
11804495725534374177

$$$$
0
XXILIB    08252103493D 0   0.00000     0.00000

 41 44  0     1  0            999 V2000
    3.7097   -4.2737   -4.9936 P   0  0  2  0  0  5           0  0  0
    0.0199   -5.6419   11.0302 F   0  0  0  0  0  1           0  0  0
    3.0224   -3.3732   -5.9797 O   0  0  0  0  0  2           0  0  0
    3.5069   -3.8748   -3.4385 O   0  0  0  0  0  2           0  0  0
    5.3160   -4.3477   -5.1725 O   0  0  0  0  0  2           0  0  0
    3.2599   -5.8235   -5.0821 O   0  0  0  0  0  2           0  0  0
   -0.0000    0.0000    0.0000 O   0  0  0  0  0  2           0  0  0
   -3.8773   -6.3708    5.7328 O   0  0  0  0  0  2           0  0  0
   -5.1954   -3.2772    4.4872 N   0  0  0  0  0  3           0  0  0
   -4.8682   -2.0506    4.0518 N   0  0  0  0  0  3           0  0  0
    0.1114    0.0012    4.8150 N   0  0  0  0  0  3           0  0  0
   -1.9210    0.0160    6.0917 N   0  0  0  0  0  3           0  0  0
   -3.4400   -5.3288    7.7644 N   0  0  0  0  0  3           0  0  0
    4.0771   -1.1656   -0.9667 N   0  0  1  0  0  3           0  0  0
   -0.5009   -6.0553    9.8664 C   0  0  0  0  0  4           0  0  0
   -0.5887   -0.0000    1.2326 C   0  0  0  0  0  4           0  0  0
   -0.5874    0.0066    5.9620 C   0  0  0  0  0  4           0  0  0
   -0.5951    0.0024    3.6753 C   0  0  0  0  0  4           0  0  0
   -5.0979   -3.4358    5.8422 C   0  0  0  0  0  4           0  0  0
   -4.5390   -1.3936    5.1726 C   0  0  0  0  0  4           0  0  0
   -2.6279    0.0161    4.9369 C   0  0  0  0  0  4           0  0  0
   -2.2381   -5.9204    8.1970 C   0  0  0  0  0  4           0  0  0
   -2.0033    0.0066    3.6694 C   0  0  0  0  0  4           0  0  0
   -1.6929   -5.4949    9.4128 C   0  0  0  0  0  4           0  0  0
    0.1587   -7.0349    9.1319 C   0  0  0  0  0  4           0  0  0
    0.0867   -0.0000    2.4581 C   0  0  0  0  0  4           0  0  0
   -1.9800   -0.0015    1.2265 C   0  0  0  0  0  4           0  0  0
   -4.6804   -2.2139    6.3201 C   0  0  0  0  0  4           0  0  0
   -1.5797   -6.9086    7.4529 C   0  0  0  0  0  4           0  0  0
   -2.6819    0.0025    2.4298 C   0  0  0  0  0  4           0  0  0
   -0.3849   -7.4624    7.9224 C   0  0  0  0  0  4           0  0  0
   -4.1753   -5.5680    6.6164 C   0  0  0  0  0  4           0  0  0
    3.9499   -2.5999   -3.0009 C   0  0  0  0  0  4           0  0  0
    1.4278   -0.0000   -0.0000 C   0  0  0  0  0  4           0  0  0
    3.6530   -2.4574   -1.5132 C   0  0  0  0  0  4           0  0  0
    3.4467   -0.0000   -1.5837 C   0  0  0  0  0  4           0  0  0
    5.5145   -1.0370   -0.7352 C   0  0  0  0  0  4           0  0  0
   -4.1210    0.0303    5.1163 C   0  0  0  0  0  4           0  0  0
   -5.4184   -4.7121    6.5277 C   0  0  0  0  0  4           0  0  0
    1.9220    0.0000   -1.4413 C   0  0  0  0  0  4           0  0  0
    6.0228   -2.0812    0.2538 C   0  0  0  0  0  4           0  0  0
  1  3  2  0     0  0
  1  4  1  0     0  0
  1  5  1  0     0  0
  1  6  1  0     0  0
  2 15  1  0     0  0
  4 33  1  0     0  0
  7 16  1  0     0  0
  7 34  1  0     0  0
  8 32  2  0     0  0
  9 10  1  0     0  0
  9 19  1  0     0  0
 10 20  2  0     0  0
 11 17  2  0     0  0
 11 18  1  0     0  0
 12 17  1  0     0  0
 12 21  2  0     0  0
 13 22  1  0     0  0
 13 32  1  0     0  0
 14 35  1  0     0  0
 14 36  1  0     0  0
 14 37  1  0     0  0
 15 24  2  0     0  0
 15 25  1  0     0  0
 16 26  2  0     0  0
 16 27  1  0     0  0
 18 23  2  0     0  0
 18 26  1  0     0  0
 19 28  2  0     0  0
 19 39  1  0     0  0
 20 28  1  0     0  0
 20 38  1  0     0  0
 21 23  1  0     0  0
 21 38  1  0     0  0
 22 24  1  0     0  0
 22 29  2  0     0  0
 23 30  1  0     0  0
 25 31  2  0     0  0
 27 30  2  0     0  0
 29 31  1  0     0  0
 32 39  1  0     0  0
 33 35  1  0     0  0
 34 40  1  0     0  0
 36 40  1  0     0  0
 37 41  1  0     0  0
M  END
> <standard_type>
pIC50

> <# Confs.>
25

> <canonical_smiles>
FC1=CC(NC(CC2=CC(CC3=NC=NC4=C3C=CC(OCCCN(CCOP(O)(O)=O)CC)=C4)=NN2)=O)=CC=C1

> <standard_relation>
=

> <Publication_ID>
Wang_2009

> <predicted_activity_value>
9.455931955649724

> <actual_activity_value>
9.522878745280337

> <Compound>
1

> <standard_units>
nM

> hash
11804495725534374177

$$$$
0
XXILIB    08252103493D 0   0.00000     0.00000

 41 44  0     1  0            999 V2000
    4.4437   -6.2519   -0.8871 P   0  0  2  0  0  5           0  0  0
   -1.3763   -7.6079   11.6255 F   0  0  0  0  0  1           0  0  0
    5.9297   -6.4269   -1.0174 O   0  0  0  0  0  2           0  0  0
    3.8657   -4.8418   -1.4312 O   0  0  0  0  0  2           0  0  0
    3.8977   -6.3383    0.6335 O   0  0  0  0  0  2           0  0  0
    3.5717   -7.3763   -1.6534 O   0  0  0  0  0  2           0  0  0
   -0.0000    0.0000    0.0000 O   0  0  0  0  0  2           0  0  0
   -3.5722   -5.9403    5.6106 O   0  0  0  0  0  2           0  0  0
   -5.1954   -3.2772    4.4872 N   0  0  0  0  0  3           0  0  0
   -4.8682   -2.0506    4.0518 N   0  0  0  0  0  3           0  0  0
    0.1114    0.0012    4.8150 N   0  0  0  0  0  3           0  0  0
   -1.9210    0.0160    6.0917 N   0  0  0  0  0  3           0  0  0
   -3.8114   -5.8519    7.9213 N   0  0  0  0  0  3           0  0  0
    4.0771   -1.1656   -0.9667 N   0  0  1  0  0  3           0  0  0
   -1.5147   -7.4828   10.2982 C   0  0  0  0  0  4           0  0  0
   -0.5887   -0.0000    1.2326 C   0  0  0  0  0  4           0  0  0
   -0.5874    0.0066    5.9620 C   0  0  0  0  0  4           0  0  0
   -0.5951    0.0024    3.6753 C   0  0  0  0  0  4           0  0  0
   -5.0979   -3.4358    5.8422 C   0  0  0  0  0  4           0  0  0
   -4.5390   -1.3936    5.1726 C   0  0  0  0  0  4           0  0  0
   -2.6279    0.0161    4.9369 C   0  0  0  0  0  4           0  0  0
   -2.7271   -6.6091    8.4036 C   0  0  0  0  0  4           0  0  0
   -2.0033    0.0066    3.6694 C   0  0  0  0  0  4           0  0  0
   -2.5808   -6.7456    9.7879 C   0  0  0  0  0  4           0  0  0
   -0.5906   -8.0898    9.4544 C   0  0  0  0  0  4           0  0  0
    0.0867   -0.0000    2.4581 C   0  0  0  0  0  4           0  0  0
   -1.9800   -0.0015    1.2265 C   0  0  0  0  0  4           0  0  0
   -4.6804   -2.2139    6.3201 C   0  0  0  0  0  4           0  0  0
   -1.8008   -7.2199    7.5476 C   0  0  0  0  0  4           0  0  0
   -2.6819    0.0025    2.4298 C   0  0  0  0  0  4           0  0  0
   -0.7369   -7.9578    8.0751 C   0  0  0  0  0  4           0  0  0
   -4.1753   -5.5680    6.6164 C   0  0  0  0  0  4           0  0  0
    4.3362   -3.6411   -0.8396 C   0  0  0  0  0  4           0  0  0
    1.4278    0.0000    0.0000 C   0  0  0  0  0  4           0  0  0
    3.6530   -2.4574   -1.5132 C   0  0  0  0  0  4           0  0  0
    3.4467   -0.0000   -1.5837 C   0  0  0  0  0  4           0  0  0
    5.5145   -1.0370   -0.7352 C   0  0  0  0  0  4           0  0  0
   -4.1210    0.0303    5.1163 C   0  0  0  0  0  4           0  0  0
   -5.4184   -4.7121    6.5277 C   0  0  0  0  0  4           0  0  0
    1.9220    0.0000   -1.4413 C   0  0  0  0  0  4           0  0  0
    6.3120   -1.2128   -2.0236 C   0  0  0  0  0  4           0  0  0
  1  3  2  0     0  0
  1  4  1  0     0  0
  1  5  1  0     0  0
  1  6  1  0     0  0
  2 15  1  0     0  0
  4 33  1  0     0  0
  7 16  1  0     0  0
  7 34  1  0     0  0
  8 32  2  0     0  0
  9 10  1  0     0  0
  9 19  1  0     0  0
 10 20  2  0     0  0
 11 17  2  0     0  0
 11 18  1  0     0  0
 12 17  1  0     0  0
 12 21  2  0     0  0
 13 22  1  0     0  0
 13 32  1  0     0  0
 14 35  1  0     0  0
 14 36  1  0     0  0
 14 37  1  0     0  0
 15 24  2  0     0  0
 15 25  1  0     0  0
 16 26  2  0     0  0
 16 27  1  0     0  0
 18 23  2  0     0  0
 18 26  1  0     0  0
 19 28  2  0     0  0
 19 39  1  0     0  0
 20 28  1  0     0  0
 20 38  1  0     0  0
 21 23  1  0     0  0
 21 38  1  0     0  0
 22 24  1  0     0  0
 22 29  2  0     0  0
 23 30  1  0     0  0
 25 31  2  0     0  0
 27 30  2  0     0  0
 29 31  1  0     0  0
 32 39  1  0     0  0
 33 35  1  0     0  0
 34 40  1  0     0  0
 36 40  1  0     0  0
 37 41  1  0     0  0
M  END
> <standard_type>
pIC50

> <# Confs.>
25

> <canonical_smiles>
FC1=CC(NC(CC2=CC(CC3=NC=NC4=C3C=CC(OCCCN(CCOP(O)(O)=O)CC)=C4)=NN2)=O)=CC=C1

> <standard_relation>
=

> <Publication_ID>
Wang_2009

> <predicted_activity_value>
9.455931955649724

> <actual_activity_value>
9.522878745280337

> <Compound>
1

> <standard_units>
nM

> hash
11804495725534374177

$$$$
0
XXILIB    08252103493D 0   0.00000     0.00000

 41 44  0     1  0            999 V2000
    6.3907    3.4798   -2.6110 P   0  0  2  0  0  5           0  0  0
    0.0199   -5.6419   11.0302 F   0  0  0  0  0  1           0  0  0
    6.1399    4.8431   -3.1888 O   0  0  0  0  0  2           0  0  0
    5.4722    2.2942   -3.2187 O   0  0  0  0  0  2           0  0  0
    6.1491    3.3828   -1.0141 O   0  0  0  0  0  2           0  0  0
    7.9088    2.9529   -2.7840 O   0  0  0  0  0  2           0  0  0
   -0.0000    0.0000    0.0000 O   0  0  0  0  0  2           0  0  0
   -3.8773   -6.3708    5.7328 O   0  0  0  0  0  2           0  0  0
   -5.1954   -3.2772    4.4872 N   0  0  0  0  0  3           0  0  0
   -4.8682   -2.0506    4.0518 N   0  0  0  0  0  3           0  0  0
    0.1114    0.0012    4.8150 N   0  0  0  0  0  3           0  0  0
   -1.9210    0.0160    6.0917 N   0  0  0  0  0  3           0  0  0
   -3.4400   -5.3288    7.7644 N   0  0  0  0  0  3           0  0  0
    1.9578    1.1803   -3.6470 N   0  0  1  0  0  3           0  0  0
   -0.5009   -6.0553    9.8664 C   0  0  0  0  0  4           0  0  0
   -0.5887   -0.0000    1.2326 C   0  0  0  0  0  4           0  0  0
   -0.5874    0.0066    5.9620 C   0  0  0  0  0  4           0  0  0
   -0.5951    0.0024    3.6753 C   0  0  0  0  0  4           0  0  0
   -5.0979   -3.4358    5.8422 C   0  0  0  0  0  4           0  0  0
   -4.5390   -1.3936    5.1726 C   0  0  0  0  0  4           0  0  0
   -2.6279    0.0161    4.9369 C   0  0  0  0  0  4           0  0  0
   -2.2381   -5.9204    8.1970 C   0  0  0  0  0  4           0  0  0
   -2.0033    0.0066    3.6694 C   0  0  0  0  0  4           0  0  0
   -1.6929   -5.4949    9.4128 C   0  0  0  0  0  4           0  0  0
    0.1587   -7.0349    9.1319 C   0  0  0  0  0  4           0  0  0
    0.0867   -0.0000    2.4581 C   0  0  0  0  0  4           0  0  0
   -1.9800   -0.0015    1.2265 C   0  0  0  0  0  4           0  0  0
   -4.6804   -2.2139    6.3201 C   0  0  0  0  0  4           0  0  0
   -1.5797   -6.9086    7.4529 C   0  0  0  0  0  4           0  0  0
   -2.6819    0.0025    2.4298 C   0  0  0  0  0  4           0  0  0
   -0.3849   -7.4624    7.9224 C   0  0  0  0  0  4           0  0  0
   -4.1753   -5.5680    6.6164 C   0  0  0  0  0  4           0  0  0
    4.0628    2.3923   -3.0885 C   0  0  0  0  0  4           0  0  0
    1.4278    0.0000    0.0000 C   0  0  0  0  0  4           0  0  0
    3.4207    1.1693   -3.7318 C   0  0  0  0  0  4           0  0  0
    1.4657    1.2091   -2.2629 C   0  0  0  0  0  4           0  0  0
    1.3508    2.2750   -4.4166 C   0  0  0  0  0  4           0  0  0
   -4.1210    0.0303    5.1163 C   0  0  0  0  0  4           0  0  0
   -5.4184   -4.7121    6.5277 C   0  0  0  0  0  4           0  0  0
    1.9220    0.0000   -1.4413 C   0  0  0  0  0  4           0  0  0
    1.6991    2.1840   -5.8989 C   0  0  0  0  0  4           0  0  0
  1  3  2  0     0  0
  1  4  1  0     0  0
  1  5  1  0     0  0
  1  6  1  0     0  0
  2 15  1  0     0  0
  4 33  1  0     0  0
  7 16  1  0     0  0
  7 34  1  0     0  0
  8 32  2  0     0  0
  9 10  1  0     0  0
  9 19  1  0     0  0
 10 20  2  0     0  0
 11 17  2  0     0  0
 11 18  1  0     0  0
 12 17  1  0     0  0
 12 21  2  0     0  0
 13 22  1  0     0  0
 13 32  1  0     0  0
 14 35  1  0     0  0
 14 36  1  0     0  0
 14 37  1  0     0  0
 15 24  2  0     0  0
 15 25  1  0     0  0
 16 26  2  0     0  0
 16 27  1  0     0  0
 18 23  2  0     0  0
 18 26  1  0     0  0
 19 28  2  0     0  0
 19 39  1  0     0  0
 20 28  1  0     0  0
 20 38  1  0     0  0
 21 23  1  0     0  0
 21 38  1  0     0  0
 22 24  1  0     0  0
 22 29  2  0     0  0
 23 30  1  0     0  0
 25 31  2  0     0  0
 27 30  2  0     0  0
 29 31  1  0     0  0
 32 39  1  0     0  0
 33 35  1  0     0  0
 34 40  1  0     0  0
 36 40  1  0     0  0
 37 41  1  0     0  0
M  END
> <standard_type>
pIC50

> <# Confs.>
25

> <canonical_smiles>
FC1=CC(NC(CC2=CC(CC3=NC=NC4=C3C=CC(OCCCN(CCOP(O)(O)=O)CC)=C4)=NN2)=O)=CC=C1

> <standard_relation>
=

> <Publication_ID>
Wang_2009

> <predicted_activity_value>
9.455931955649724

> <actual_activity_value>
9.522878745280337

> <Compound>
1

> <standard_units>
nM

> hash
11804495725534374177

$$$$
0
XXILIB    08252103493D 0   0.00000     0.00000

 41 44  0     1  0            999 V2000
    3.8307    2.4450   -7.4523 P   0  0  2  0  0  5           0  0  0
    0.0199   -5.6419   11.0302 F   0  0  0  0  0  1           0  0  0
    5.3014    2.5252   -7.7460 O   0  0  0  0  0  2           0  0  0
    3.4492    2.2557   -5.8911 O   0  0  0  0  0  2           0  0  0
    3.0737    1.2210   -8.1915 O   0  0  0  0  0  2           0  0  0
    2.9859    3.7382   -7.9275 O   0  0  0  0  0  2           0  0  0
   -0.0000    0.0000    0.0000 O   0  0  0  0  0  2           0  0  0
   -3.8773   -6.3708    5.7328 O   0  0  0  0  0  2           0  0  0
   -5.1954   -3.2772    4.4872 N   0  0  0  0  0  3           0  0  0
   -4.8682   -2.0506    4.0518 N   0  0  0  0  0  3           0  0  0
    0.1114    0.0012    4.8150 N   0  0  0  0  0  3           0  0  0
   -1.9210    0.0160    6.0917 N   0  0  0  0  0  3           0  0  0
   -3.4400   -5.3288    7.7644 N   0  0  0  0  0  3           0  0  0
    3.8894    0.0000   -2.9768 N   0  0  1  0  0  3           0  0  0
   -0.5009   -6.0553    9.8664 C   0  0  0  0  0  4           0  0  0
   -0.5887   -0.0000    1.2326 C   0  0  0  0  0  4           0  0  0
   -0.5874    0.0066    5.9620 C   0  0  0  0  0  4           0  0  0
   -0.5951    0.0024    3.6753 C   0  0  0  0  0  4           0  0  0
   -5.0979   -3.4358    5.8422 C   0  0  0  0  0  4           0  0  0
   -4.5390   -1.3936    5.1726 C   0  0  0  0  0  4           0  0  0
   -2.6279    0.0161    4.9369 C   0  0  0  0  0  4           0  0  0
   -2.2381   -5.9204    8.1970 C   0  0  0  0  0  4           0  0  0
   -2.0033    0.0066    3.6694 C   0  0  0  0  0  4           0  0  0
   -1.6929   -5.4949    9.4128 C   0  0  0  0  0  4           0  0  0
    0.1587   -7.0349    9.1319 C   0  0  0  0  0  4           0  0  0
    0.0867   -0.0000    2.4581 C   0  0  0  0  0  4           0  0  0
   -1.9800   -0.0015    1.2265 C   0  0  0  0  0  4           0  0  0
   -4.6804   -2.2139    6.3201 C   0  0  0  0  0  4           0  0  0
   -1.5797   -6.9086    7.4529 C   0  0  0  0  0  4           0  0  0
   -2.6819    0.0025    2.4298 C   0  0  0  0  0  4           0  0  0
   -0.3849   -7.4624    7.9224 C   0  0  0  0  0  4           0  0  0
   -4.1753   -5.5680    6.6164 C   0  0  0  0  0  4           0  0  0
    3.9282    1.1073   -5.2092 C   0  0  0  0  0  4           0  0  0
    1.4278   -0.0000   -0.0000 C   0  0  0  0  0  4           0  0  0
    3.4427    1.1513   -3.7656 C   0  0  0  0  0  4           0  0  0
    3.4467   -0.0000   -1.5837 C   0  0  0  0  0  4           0  0  0
    5.2864   -0.3797   -3.1782 C   0  0  0  0  0  4           0  0  0
   -4.1210    0.0303    5.1163 C   0  0  0  0  0  4           0  0  0
   -5.4184   -4.7121    6.5277 C   0  0  0  0  0  4           0  0  0
    1.9220    0.0000   -1.4413 C   0  0  0  0  0  4           0  0  0
    6.2382    0.7550   -2.8130 C   0  0  0  0  0  4           0  0  0
  1  3  2  0     0  0
  1  4  1  0     0  0
  1  5  1  0     0  0
  1  6  1  0     0  0
  2 15  1  0     0  0
  4 33  1  0     0  0
  7 16  1  0     0  0
  7 34  1  0     0  0
  8 32  2  0     0  0
  9 10  1  0     0  0
  9 19  1  0     0  0
 10 20  2  0     0  0
 11 17  2  0     0  0
 11 18  1  0     0  0
 12 17  1  0     0  0
 12 21  2  0     0  0
 13 22  1  0     0  0
 13 32  1  0     0  0
 14 35  1  0     0  0
 14 36  1  0     0  0
 14 37  1  0     0  0
 15 24  2  0     0  0
 15 25  1  0     0  0
 16 26  2  0     0  0
 16 27  1  0     0  0
 18 23  2  0     0  0
 18 26  1  0     0  0
 19 28  2  0     0  0
 19 39  1  0     0  0
 20 28  1  0     0  0
 20 38  1  0     0  0
 21 23  1  0     0  0
 21 38  1  0     0  0
 22 24  1  0     0  0
 22 29  2  0     0  0
 23 30  1  0     0  0
 25 31  2  0     0  0
 27 30  2  0     0  0
 29 31  1  0     0  0
 32 39  1  0     0  0
 33 35  1  0     0  0
 34 40  1  0     0  0
 36 40  1  0     0  0
 37 41  1  0     0  0
M  END
> <standard_type>
pIC50

> <# Confs.>
25

> <canonical_smiles>
FC1=CC(NC(CC2=CC(CC3=NC=NC4=C3C=CC(OCCCN(CCOP(O)(O)=O)CC)=C4)=NN2)=O)=CC=C1

> <standard_relation>
=

> <Publication_ID>
Wang_2009

> <predicted_activity_value>
9.455931955649724

> <actual_activity_value>
9.522878745280337

> <Compound>
1

> <standard_units>
nM

> hash
11804495725534374177

$$$$
0
XXILIB    08252103493D 0   0.00000     0.00000

 41 44  0     1  0            999 V2000
    3.7097   -4.2737   -4.9936 P   0  0  2  0  0  5           0  0  0
   -9.2273    3.0951   12.1040 F   0  0  0  0  0  1           0  0  0
    3.0224   -3.3732   -5.9797 O   0  0  0  0  0  2           0  0  0
    3.5069   -3.8748   -3.4385 O   0  0  0  0  0  2           0  0  0
    5.3160   -4.3477   -5.1725 O   0  0  0  0  0  2           0  0  0
    3.2599   -5.8235   -5.0821 O   0  0  0  0  0  2           0  0  0
    0.0000    0.0000    0.0000 O   0  0  0  0  0  2           0  0  0
   -7.5532    5.3798    6.1240 O   0  0  0  0  0  2           0  0  0
   -5.1127    3.3561    4.4487 N   0  0  0  0  0  3           0  0  0
   -4.8313    2.1126    4.0294 N   0  0  0  0  0  3           0  0  0
    0.1114    0.0012    4.8150 N   0  0  0  0  0  3           0  0  0
   -1.9210    0.0160    6.0917 N   0  0  0  0  0  3           0  0  0
   -6.9247    4.4104    8.1413 N   0  0  0  0  0  3           0  0  0
    4.0771   -1.1656   -0.9667 N   0  0  1  0  0  3           0  0  0
   -9.2685    3.6364   10.8785 C   0  0  0  0  0  4           0  0  0
   -0.5887    0.0000    1.2326 C   0  0  0  0  0  4           0  0  0
   -0.5874    0.0066    5.9620 C   0  0  0  0  0  4           0  0  0
   -0.5951    0.0024    3.6753 C   0  0  0  0  0  4           0  0  0
   -4.9825    3.5357    5.7983 C   0  0  0  0  0  4           0  0  0
   -4.5136    1.4619    5.1573 C   0  0  0  0  0  4           0  0  0
   -2.6279    0.0161    4.9369 C   0  0  0  0  0  4           0  0  0
   -8.1306    4.3135    8.8612 C   0  0  0  0  0  4           0  0  0
   -2.0033    0.0066    3.6694 C   0  0  0  0  0  4           0  0  0
   -8.0918    3.7530   10.1420 C   0  0  0  0  0  4           0  0  0
  -10.4854    4.0702   10.3634 C   0  0  0  0  0  4           0  0  0
    0.0867    0.0000    2.4581 C   0  0  0  0  0  4           0  0  0
   -1.9800   -0.0015    1.2265 C   0  0  0  0  0  4           0  0  0
   -4.5799    2.3137    6.2885 C   0  0  0  0  0  4           0  0  0
   -9.3530    4.7547    8.3370 C   0  0  0  0  0  4           0  0  0
   -2.6819    0.0025    2.4298 C   0  0  0  0  0  4           0  0  0
  -10.5252    4.6321    9.0891 C   0  0  0  0  0  4           0  0  0
   -6.6945    4.9172    6.8741 C   0  0  0  0  0  4           0  0  0
    3.9499   -2.5999   -3.0009 C   0  0  0  0  0  4           0  0  0
    1.4278   -0.0000   -0.0000 C   0  0  0  0  0  4           0  0  0
    3.6530   -2.4574   -1.5132 C   0  0  0  0  0  4           0  0  0
    3.4467   -0.0000   -1.5837 C   0  0  0  0  0  4           0  0  0
    5.5145   -1.0370   -0.7352 C   0  0  0  0  0  4           0  0  0
   -4.1210    0.0303    5.1163 C   0  0  0  0  0  4           0  0  0
   -5.2413    4.8356    6.4653 C   0  0  0  0  0  4           0  0  0
    1.9220    0.0000   -1.4413 C   0  0  0  0  0  4           0  0  0
    6.0228   -2.0812    0.2538 C   0  0  0  0  0  4           0  0  0
  1  3  2  0     0  0
  1  4  1  0     0  0
  1  5  1  0     0  0
  1  6  1  0     0  0
  2 15  1  0     0  0
  4 33  1  0     0  0
  7 16  1  0     0  0
  7 34  1  0     0  0
  8 32  2  0     0  0
  9 10  1  0     0  0
  9 19  1  0     0  0
 10 20  2  0     0  0
 11 17  2  0     0  0
 11 18  1  0     0  0
 12 17  1  0     0  0
 12 21  2  0     0  0
 13 22  1  0     0  0
 13 32  1  0     0  0
 14 35  1  0     0  0
 14 36  1  0     0  0
 14 37  1  0     0  0
 15 24  2  0     0  0
 15 25  1  0     0  0
 16 26  2  0     0  0
 16 27  1  0     0  0
 18 23  2  0     0  0
 18 26  1  0     0  0
 19 28  2  0     0  0
 19 39  1  0     0  0
 20 28  1  0     0  0
 20 38  1  0     0  0
 21 23  1  0     0  0
 21 38  1  0     0  0
 22 24  1  0     0  0
 22 29  2  0     0  0
 23 30  1  0     0  0
 25 31  2  0     0  0
 27 30  2  0     0  0
 29 31  1  0     0  0
 32 39  1  0     0  0
 33 35  1  0     0  0
 34 40  1  0     0  0
 36 40  1  0     0  0
 37 41  1  0     0  0
M  END
> <standard_type>
pIC50

> <# Confs.>
25

> <canonical_smiles>
FC1=CC(NC(CC2=CC(CC3=NC=NC4=C3C=CC(OCCCN(CCOP(O)(O)=O)CC)=C4)=NN2)=O)=CC=C1

> <standard_relation>
=

> <Publication_ID>
Wang_2009

> <predicted_activity_value>
9.455931955649724

> <actual_activity_value>
9.522878745280337

> <Compound>
1

> <standard_units>
nM

> hash
11804495725534374177

$$$$
0
XXILIB    08252103493D 0   0.00000     0.00000

 41 44  0     1  0            999 V2000
    6.3907    3.4798   -2.6110 P   0  0  2  0  0  5           0  0  0
   -9.2273    3.0951   12.1040 F   0  0  0  0  0  1           0  0  0
    6.1399    4.8431   -3.1888 O   0  0  0  0  0  2           0  0  0
    5.4722    2.2942   -3.2187 O   0  0  0  0  0  2           0  0  0
    6.1491    3.3828   -1.0141 O   0  0  0  0  0  2           0  0  0
    7.9088    2.9529   -2.7840 O   0  0  0  0  0  2           0  0  0
    0.0000    0.0000    0.0000 O   0  0  0  0  0  2           0  0  0
   -7.5532    5.3798    6.1240 O   0  0  0  0  0  2           0  0  0
   -5.1127    3.3561    4.4487 N   0  0  0  0  0  3           0  0  0
   -4.8313    2.1126    4.0294 N   0  0  0  0  0  3           0  0  0
    0.1114    0.0012    4.8150 N   0  0  0  0  0  3           0  0  0
   -1.9210    0.0160    6.0917 N   0  0  0  0  0  3           0  0  0
   -6.9247    4.4104    8.1413 N   0  0  0  0  0  3           0  0  0
    1.9578    1.1803   -3.6470 N   0  0  1  0  0  3           0  0  0
   -9.2685    3.6364   10.8785 C   0  0  0  0  0  4           0  0  0
   -0.5887    0.0000    1.2326 C   0  0  0  0  0  4           0  0  0
   -0.5874    0.0066    5.9620 C   0  0  0  0  0  4           0  0  0
   -0.5951    0.0024    3.6753 C   0  0  0  0  0  4           0  0  0
   -4.9825    3.5357    5.7983 C   0  0  0  0  0  4           0  0  0
   -4.5136    1.4619    5.1573 C   0  0  0  0  0  4           0  0  0
   -2.6279    0.0161    4.9369 C   0  0  0  0  0  4           0  0  0
   -8.1306    4.3135    8.8612 C   0  0  0  0  0  4           0  0  0
   -2.0033    0.0066    3.6694 C   0  0  0  0  0  4           0  0  0
   -8.0918    3.7530   10.1420 C   0  0  0  0  0  4           0  0  0
  -10.4854    4.0702   10.3634 C   0  0  0  0  0  4           0  0  0
    0.0867    0.0000    2.4581 C   0  0  0  0  0  4           0  0  0
   -1.9800   -0.0015    1.2265 C   0  0  0  0  0  4           0  0  0
   -4.5799    2.3137    6.2885 C   0  0  0  0  0  4           0  0  0
   -9.3530    4.7547    8.3370 C   0  0  0  0  0  4           0  0  0
   -2.6819    0.0025    2.4298 C   0  0  0  0  0  4           0  0  0
  -10.5252    4.6321    9.0891 C   0  0  0  0  0  4           0  0  0
   -6.6945    4.9172    6.8741 C   0  0  0  0  0  4           0  0  0
    4.0628    2.3923   -3.0885 C   0  0  0  0  0  4           0  0  0
    1.4278    0.0000    0.0000 C   0  0  0  0  0  4           0  0  0
    3.4207    1.1693   -3.7318 C   0  0  0  0  0  4           0  0  0
    1.4657    1.2091   -2.2629 C   0  0  0  0  0  4           0  0  0
    1.3508    2.2750   -4.4166 C   0  0  0  0  0  4           0  0  0
   -4.1210    0.0303    5.1163 C   0  0  0  0  0  4           0  0  0
   -5.2413    4.8356    6.4653 C   0  0  0  0  0  4           0  0  0
    1.9220    0.0000   -1.4413 C   0  0  0  0  0  4           0  0  0
    1.6991    2.1840   -5.8989 C   0  0  0  0  0  4           0  0  0
  1  3  2  0     0  0
  1  4  1  0     0  0
  1  5  1  0     0  0
  1  6  1  0     0  0
  2 15  1  0     0  0
  4 33  1  0     0  0
  7 16  1  0     0  0
  7 34  1  0     0  0
  8 32  2  0     0  0
  9 10  1  0     0  0
  9 19  1  0     0  0
 10 20  2  0     0  0
 11 17  2  0     0  0
 11 18  1  0     0  0
 12 17  1  0     0  0
 12 21  2  0     0  0
 13 22  1  0     0  0
 13 32  1  0     0  0
 14 35  1  0     0  0
 14 36  1  0     0  0
 14 37  1  0     0  0
 15 24  2  0     0  0
 15 25  1  0     0  0
 16 26  2  0     0  0
 16 27  1  0     0  0
 18 23  2  0     0  0
 18 26  1  0     0  0
 19 28  2  0     0  0
 19 39  1  0     0  0
 20 28  1  0     0  0
 20 38  1  0     0  0
 21 23  1  0     0  0
 21 38  1  0     0  0
 22 24  1  0     0  0
 22 29  2  0     0  0
 23 30  1  0     0  0
 25 31  2  0     0  0
 27 30  2  0     0  0
 29 31  1  0     0  0
 32 39  1  0     0  0
 33 35  1  0     0  0
 34 40  1  0     0  0
 36 40  1  0     0  0
 37 41  1  0     0  0
M  END
> <standard_type>
pIC50

> <# Confs.>
25

> <canonical_smiles>
FC1=CC(NC(CC2=CC(CC3=NC=NC4=C3C=CC(OCCCN(CCOP(O)(O)=O)CC)=C4)=NN2)=O)=CC=C1

> <standard_relation>
=

> <Publication_ID>
Wang_2009

> <predicted_activity_value>
9.455931955649724

> <actual_activity_value>
9.522878745280337

> <Compound>
1

> <standard_units>
nM

> hash
11804495725534374177

$$$$
10
XXILIB    08252103493D 0   0.00000     0.00000

 30 33  0     1  0            999 V2000
   -6.0463    2.1917    0.6426 O   0  0  0  0  0  2           0  0  0
   -4.5027    2.2968   -1.4514 O   0  0  0  0  0  2           0  0  0
    6.0078   -1.0523   -1.8334 O   0  0  0  0  0  2           0  0  0
    3.5294   -0.5646   -0.9836 N   0  0  0  0  0  3           0  0  0
    3.4641    0.6340    1.0807 N   0  0  0  0  0  3           0  0  0
   -0.5352   -0.5943    2.2426 N   0  0  0  0  0  3           0  0  0
   -2.6702   -0.0682    3.1970 N   0  0  0  0  0  3           0  0  0
    0.0000    0.0000    0.0000 N   0  0  0  0  0  3           0  0  0
    5.5367    0.0854    0.1266 N   0  0  0  0  0  3           0  0  0
   -4.8031    1.6434    0.7828 C   0  0  0  0  0  4           0  0  0
   -3.9735    1.7016   -0.3417 C   0  0  0  0  0  4           0  0  0
    4.1270    0.0448    0.0637 C   0  0  0  0  0  4           0  0  0
   -1.4346   -0.5872    3.2356 C   0  0  0  0  0  4           0  0  0
   -0.9059   -0.0000    1.0820 C   0  0  0  0  0  4           0  0  0
   -3.0494    0.4975    2.0435 C   0  0  0  0  0  4           0  0  0
    2.1767   -0.5693   -0.9860 C   0  0  0  0  0  4           0  0  0
    2.1142    0.5950    1.0188 C   0  0  0  0  0  4           0  0  0
    1.3912   -0.0000   -0.0000 C   0  0  0  0  0  4           0  0  0
   -2.1996    0.5594    0.9228 C   0  0  0  0  0  4           0  0  0
    7.8286   -0.3087   -0.5646 C   0  0  0  0  0  4           0  0  0
   -4.3301    1.0388    1.9547 C   0  0  0  0  0  4           0  0  0
   -2.6846    1.1612   -0.2668 C   0  0  0  0  0  4           0  0  0
    8.2860   -0.2011    0.7496 C   0  0  0  0  0  4           0  0  0
    8.7137   -0.2939   -1.6434 C   0  0  0  0  0  4           0  0  0
    9.6541   -0.0680    0.9830 C   0  0  0  0  0  4           0  0  0
   10.0797   -0.1606   -1.3987 C   0  0  0  0  0  4           0  0  0
   10.5492   -0.0471   -0.0885 C   0  0  0  0  0  4           0  0  0
    6.3764   -0.4623   -0.8200 C   0  0  0  0  0  4           0  0  0
   -6.8785    2.1239    1.7975 C   0  0  0  0  0  4           0  0  0
   -3.6433    2.3470   -2.5871 C   0  0  0  0  0  4           0  0  0
  1 10  1  0     0  0
  1 29  1  0     0  0
  2 11  1  0     0  0
  2 30  1  0     0  0
  3 28  2  0     0  0
  4 12  2  0     0  0
  4 16  1  0     0  0
  5 12  1  0     0  0
  5 17  2  0     0  0
  6 13  1  0     0  0
  6 14  2  0     0  0
  7 13  2  0     0  0
  7 15  1  0     0  0
  8 14  1  0     0  0
  8 18  1  0     0  0
  9 12  1  0     0  0
  9 28  1  0     0  0
 10 11  1  0     0  0
 10 21  2  0     0  0
 11 22  2  0     0  0
 14 19  1  0     0  0
 15 19  2  0     0  0
 15 21  1  0     0  0
 16 18  2  0     0  0
 17 18  1  0     0  0
 19 22  1  0     0  0
 20 23  2  0     0  0
 20 24  1  0     0  0
 20 28  1  0     0  0
 23 25  1  0     0  0
 24 26  2  0     0  0
 25 27  2  0     0  0
 26 27  1  0     0  0
M  END
> <standard_type>
pIC50

> <# Confs.>
25

> <canonical_smiles>
O=C(NC1=NC=C(NC2=NC=NC3=C2C=C(OC)C(OC)=C3)C=N1)C4=CC=CC=C4

> <standard_relation>
=

> <Publication_ID>
nan

> <predicted_activity_value>
7.721246399047171

> <actual_activity_value>
7.6020599913279625

> <Compound>
11

> <standard_units>
nM

> hash
7075920698246586756

$$$$
10
XXILIB    08252103493D 0   0.00000     0.00000

 30 33  0     1  0            999 V2000
   -6.0463    2.1917    0.6426 O   0  0  0  0  0  2           0  0  0
   -4.5027    2.2968   -1.4514 O   0  0  0  0  0  2           0  0  0
    6.0078   -0.0054    2.1139 O   0  0  0  0  0  2           0  0  0
    3.5294   -0.0028    1.1341 N   0  0  0  0  0  3           0  0  0
    3.4641   -0.0087   -1.2529 N   0  0  0  0  0  3           0  0  0
   -0.5352   -0.5943    2.2426 N   0  0  0  0  0  3           0  0  0
   -2.6702   -0.0682    3.1970 N   0  0  0  0  0  3           0  0  0
    0.0000    0.0000    0.0000 N   0  0  0  0  0  3           0  0  0
    5.5367   -0.0106   -0.1523 N   0  0  0  0  0  3           0  0  0
   -4.8031    1.6434    0.7828 C   0  0  0  0  0  4           0  0  0
   -3.9735    1.7016   -0.3417 C   0  0  0  0  0  4           0  0  0
    4.1270   -0.0070   -0.0776 C   0  0  0  0  0  4           0  0  0
   -1.4346   -0.5872    3.2356 C   0  0  0  0  0  4           0  0  0
   -0.9059   -0.0000    1.0820 C   0  0  0  0  0  4           0  0  0
   -3.0494    0.4975    2.0435 C   0  0  0  0  0  4           0  0  0
    2.1767   -0.0000    1.1386 C   0  0  0  0  0  4           0  0  0
    2.1142   -0.0059   -1.1798 C   0  0  0  0  0  4           0  0  0
    1.3912    0.0000    0.0000 C   0  0  0  0  0  4           0  0  0
   -2.1996    0.5594    0.9228 C   0  0  0  0  0  4           0  0  0
    7.8286   -0.0150    0.6433 C   0  0  0  0  0  4           0  0  0
   -4.3301    1.0388    1.9547 C   0  0  0  0  0  4           0  0  0
   -2.6846    1.1612   -0.2668 C   0  0  0  0  0  4           0  0  0
    8.2860    0.5490   -0.5486 C   0  0  0  0  0  4           0  0  0
    8.7137   -0.5672    1.5702 C   0  0  0  0  0  4           0  0  0
    9.6541    0.5504   -0.8173 C   0  0  0  0  0  4           0  0  0
   10.0797   -0.5603    1.2916 C   0  0  0  0  0  4           0  0  0
   10.5492   -0.0035    0.1001 C   0  0  0  0  0  4           0  0  0
    6.3764   -0.0096    0.9413 C   0  0  0  0  0  4           0  0  0
   -6.8785    2.1239    1.7975 C   0  0  0  0  0  4           0  0  0
   -3.6433    2.3470   -2.5871 C   0  0  0  0  0  4           0  0  0
  1 10  1  0     0  0
  1 29  1  0     0  0
  2 11  1  0     0  0
  2 30  1  0     0  0
  3 28  2  0     0  0
  4 12  2  0     0  0
  4 16  1  0     0  0
  5 12  1  0     0  0
  5 17  2  0     0  0
  6 13  1  0     0  0
  6 14  2  0     0  0
  7 13  2  0     0  0
  7 15  1  0     0  0
  8 14  1  0     0  0
  8 18  1  0     0  0
  9 12  1  0     0  0
  9 28  1  0     0  0
 10 11  1  0     0  0
 10 21  2  0     0  0
 11 22  2  0     0  0
 14 19  1  0     0  0
 15 19  2  0     0  0
 15 21  1  0     0  0
 16 18  2  0     0  0
 17 18  1  0     0  0
 19 22  1  0     0  0
 20 23  2  0     0  0
 20 24  1  0     0  0
 20 28  1  0     0  0
 23 25  1  0     0  0
 24 26  2  0     0  0
 25 27  2  0     0  0
 26 27  1  0     0  0
M  END
> <standard_type>
pIC50

> <# Confs.>
25

> <canonical_smiles>
O=C(NC1=NC=C(NC2=NC=NC3=C2C=C(OC)C(OC)=C3)C=N1)C4=CC=CC=C4

> <standard_relation>
=

> <Publication_ID>
nan

> <predicted_activity_value>
7.721246399047171

> <actual_activity_value>
7.6020599913279625

> <Compound>
11

> <standard_units>
nM

> hash
7075920698246586756

$$$$
10
XXILIB    08252103493D 0   0.00000     0.00000

 30 33  0     1  0            999 V2000
   -6.0463    2.1917    0.6426 O   0  0  0  0  0  2           0  0  0
   -4.5027    2.2968   -1.4514 O   0  0  0  0  0  2           0  0  0
    6.0078    1.0523    1.8334 O   0  0  0  0  0  2           0  0  0
    3.5294    0.5646    0.9836 N   0  0  0  0  0  3           0  0  0
    3.4641   -0.6340   -1.0807 N   0  0  0  0  0  3           0  0  0
   -0.5352   -0.5943    2.2426 N   0  0  0  0  0  3           0  0  0
   -2.6702   -0.0682    3.1970 N   0  0  0  0  0  3           0  0  0
    0.0000    0.0000    0.0000 N   0  0  0  0  0  3           0  0  0
    5.5367   -0.0854   -0.1266 N   0  0  0  0  0  3           0  0  0
   -4.8031    1.6434    0.7828 C   0  0  0  0  0  4           0  0  0
   -3.9735    1.7016   -0.3417 C   0  0  0  0  0  4           0  0  0
    4.1270   -0.0448   -0.0637 C   0  0  0  0  0  4           0  0  0
   -1.4346   -0.5872    3.2356 C   0  0  0  0  0  4           0  0  0
   -0.9059   -0.0000    1.0820 C   0  0  0  0  0  4           0  0  0
   -3.0494    0.4975    2.0435 C   0  0  0  0  0  4           0  0  0
    2.1767    0.5693    0.9860 C   0  0  0  0  0  4           0  0  0
    2.1142   -0.5950   -1.0188 C   0  0  0  0  0  4           0  0  0
    1.3912    0.0000    0.0000 C   0  0  0  0  0  4           0  0  0
   -2.1996    0.5594    0.9228 C   0  0  0  0  0  4           0  0  0
    7.8286    0.3087    0.5646 C   0  0  0  0  0  4           0  0  0
   -4.3301    1.0388    1.9547 C   0  0  0  0  0  4           0  0  0
   -2.6846    1.1612   -0.2668 C   0  0  0  0  0  4           0  0  0
    8.7214    1.2368    1.1026 C   0  0  0  0  0  4           0  0  0
    8.2777   -0.7734   -0.1938 C   0  0  0  0  0  4           0  0  0
   10.0866    1.0799    0.8676 C   0  0  0  0  0  4           0  0  0
    9.6450   -0.9209   -0.4224 C   0  0  0  0  0  4           0  0  0
   10.5478    0.0040    0.1064 C   0  0  0  0  0  4           0  0  0
    6.3764    0.4623    0.8200 C   0  0  0  0  0  4           0  0  0
   -6.8785    2.1239    1.7975 C   0  0  0  0  0  4           0  0  0
   -3.6433    2.3470   -2.5871 C   0  0  0  0  0  4           0  0  0
  1 10  1  0     0  0
  1 29  1  0     0  0
  2 11  1  0     0  0
  2 30  1  0     0  0
  3 28  2  0     0  0
  4 12  2  0     0  0
  4 16  1  0     0  0
  5 12  1  0     0  0
  5 17  2  0     0  0
  6 13  1  0     0  0
  6 14  2  0     0  0
  7 13  2  0     0  0
  7 15  1  0     0  0
  8 14  1  0     0  0
  8 18  1  0     0  0
  9 12  1  0     0  0
  9 28  1  0     0  0
 10 11  1  0     0  0
 10 21  2  0     0  0
 11 22  2  0     0  0
 14 19  1  0     0  0
 15 19  2  0     0  0
 15 21  1  0     0  0
 16 18  2  0     0  0
 17 18  1  0     0  0
 19 22  1  0     0  0
 20 23  2  0     0  0
 20 24  1  0     0  0
 20 28  1  0     0  0
 23 25  1  0     0  0
 24 26  2  0     0  0
 25 27  2  0     0  0
 26 27  1  0     0  0
M  END
> <standard_type>
pIC50

> <# Confs.>
25

> <canonical_smiles>
O=C(NC1=NC=C(NC2=NC=NC3=C2C=C(OC)C(OC)=C3)C=N1)C4=CC=CC=C4

> <standard_relation>
=

> <Publication_ID>
nan

> <predicted_activity_value>
7.721246399047171

> <actual_activity_value>
7.6020599913279625

> <Compound>
11

> <standard_units>
nM

> hash
7075920698246586756

$$$$
10
XXILIB    08252103493D 0   0.00000     0.00000

 30 33  0     1  0            999 V2000
   -5.8824   -2.5618    0.7797 O   0  0  0  0  0  2           0  0  0
   -4.3471   -2.6484   -1.3211 O   0  0  0  0  0  2           0  0  0
    6.0078    0.0054   -2.1139 O   0  0  0  0  0  2           0  0  0
    3.5294    0.0028   -1.1341 N   0  0  0  0  0  3           0  0  0
    3.4641    0.0087    1.2529 N   0  0  0  0  0  3           0  0  0
   -0.5352    0.5943    2.2426 N   0  0  0  0  0  3           0  0  0
   -2.6269   -0.0298    3.2333 N   0  0  0  0  0  3           0  0  0
    0.0000    0.0000   -0.0000 N   0  0  0  0  0  3           0  0  0
    5.5367    0.0106    0.1523 N   0  0  0  0  0  3           0  0  0
   -4.6752   -1.9324    0.8899 C   0  0  0  0  0  4           0  0  0
   -3.8513   -1.9776   -0.2394 C   0  0  0  0  0  4           0  0  0
    4.1270    0.0070    0.0776 C   0  0  0  0  0  4           0  0  0
   -1.4193    0.5526    3.2484 C   0  0  0  0  0  4           0  0  0
   -0.9059    0.0000    1.0820 C   0  0  0  0  0  4           0  0  0
   -2.9863   -0.6400    2.0963 C   0  0  0  0  0  4           0  0  0
    2.1767    0.0000   -1.1386 C   0  0  0  0  0  4           0  0  0
    2.1142    0.0059    1.1798 C   0  0  0  0  0  4           0  0  0
    1.3912    0.0000   -0.0000 C   0  0  0  0  0  4           0  0  0
   -2.1515   -0.6678    0.9630 C   0  0  0  0  0  4           0  0  0
    7.8286    0.0150   -0.6433 C   0  0  0  0  0  4           0  0  0
   -4.2282   -1.2692    2.0401 C   0  0  0  0  0  4           0  0  0
   -2.6009   -1.3503   -0.1967 C   0  0  0  0  0  4           0  0  0
    8.2860   -0.5490    0.5486 C   0  0  0  0  0  4           0  0  0
    8.7137    0.5672   -1.5702 C   0  0  0  0  0  4           0  0  0
    9.6541   -0.5504    0.8173 C   0  0  0  0  0  4           0  0  0
   10.0797    0.5603   -1.2916 C   0  0  0  0  0  4           0  0  0
   10.5492    0.0035   -0.1001 C   0  0  0  0  0  4           0  0  0
    6.3764    0.0096   -0.9413 C   0  0  0  0  0  4           0  0  0
   -6.7093   -2.5061    1.9392 C   0  0  0  0  0  4           0  0  0
   -3.4941   -2.6840   -2.4622 C   0  0  0  0  0  4           0  0  0
  1 10  1  0     0  0
  1 29  1  0     0  0
  2 11  1  0     0  0
  2 30  1  0     0  0
  3 28  2  0     0  0
  4 12  2  0     0  0
  4 16  1  0     0  0
  5 12  1  0     0  0
  5 17  2  0     0  0
  6 13  1  0     0  0
  6 14  2  0     0  0
  7 13  2  0     0  0
  7 15  1  0     0  0
  8 14  1  0     0  0
  8 18  1  0     0  0
  9 12  1  0     0  0
  9 28  1  0     0  0
 10 11  1  0     0  0
 10 21  2  0     0  0
 11 22  2  0     0  0
 14 19  1  0     0  0
 15 19  2  0     0  0
 15 21  1  0     0  0
 16 18  2  0     0  0
 17 18  1  0     0  0
 19 22  1  0     0  0
 20 23  2  0     0  0
 20 24  1  0     0  0
 20 28  1  0     0  0
 23 25  1  0     0  0
 24 26  2  0     0  0
 25 27  2  0     0  0
 26 27  1  0     0  0
M  END
> <standard_type>
pIC50

> <# Confs.>
25

> <canonical_smiles>
O=C(NC1=NC=C(NC2=NC=NC3=C2C=C(OC)C(OC)=C3)C=N1)C4=CC=CC=C4

> <standard_relation>
=

> <Publication_ID>
nan

> <predicted_activity_value>
7.721246399047171

> <actual_activity_value>
7.6020599913279625

> <Compound>
11

> <standard_units>
nM

> hash
7075920698246586756

$$$$
10
XXILIB    08252103493D 0   0.00000     0.00000

 30 33  0     1  0            999 V2000
   -5.8824   -2.5618    0.7797 O   0  0  0  0  0  2           0  0  0
   -4.3471   -2.6484   -1.3211 O   0  0  0  0  0  2           0  0  0
    6.0078   -0.0054    2.1139 O   0  0  0  0  0  2           0  0  0
    3.5294   -0.0028    1.1341 N   0  0  0  0  0  3           0  0  0
    3.4641   -0.0087   -1.2529 N   0  0  0  0  0  3           0  0  0
   -0.5352    0.5943    2.2426 N   0  0  0  0  0  3           0  0  0
   -2.6269   -0.0298    3.2333 N   0  0  0  0  0  3           0  0  0
    0.0000    0.0000   -0.0000 N   0  0  0  0  0  3           0  0  0
    5.5367   -0.0106   -0.1523 N   0  0  0  0  0  3           0  0  0
   -4.6752   -1.9324    0.8899 C   0  0  0  0  0  4           0  0  0
   -3.8513   -1.9776   -0.2394 C   0  0  0  0  0  4           0  0  0
    4.1270   -0.0070   -0.0776 C   0  0  0  0  0  4           0  0  0
   -1.4193    0.5526    3.2484 C   0  0  0  0  0  4           0  0  0
   -0.9059    0.0000    1.0820 C   0  0  0  0  0  4           0  0  0
   -2.9863   -0.6400    2.0963 C   0  0  0  0  0  4           0  0  0
    2.1767   -0.0000    1.1386 C   0  0  0  0  0  4           0  0  0
    2.1142   -0.0059   -1.1798 C   0  0  0  0  0  4           0  0  0
    1.3912    0.0000    0.0000 C   0  0  0  0  0  4           0  0  0
   -2.1515   -0.6678    0.9630 C   0  0  0  0  0  4           0  0  0
    7.8286   -0.0150    0.6433 C   0  0  0  0  0  4           0  0  0
   -4.2282   -1.2692    2.0401 C   0  0  0  0  0  4           0  0  0
   -2.6009   -1.3503   -0.1967 C   0  0  0  0  0  4           0  0  0
    8.2860    0.5490   -0.5486 C   0  0  0  0  0  4           0  0  0
    8.7137   -0.5672    1.5702 C   0  0  0  0  0  4           0  0  0
    9.6541    0.5504   -0.8173 C   0  0  0  0  0  4           0  0  0
   10.0797   -0.5603    1.2916 C   0  0  0  0  0  4           0  0  0
   10.5492   -0.0035    0.1001 C   0  0  0  0  0  4           0  0  0
    6.3764   -0.0096    0.9413 C   0  0  0  0  0  4           0  0  0
   -6.7093   -2.5061    1.9392 C   0  0  0  0  0  4           0  0  0
   -3.4941   -2.6840   -2.4622 C   0  0  0  0  0  4           0  0  0
  1 10  1  0     0  0
  1 29  1  0     0  0
  2 11  1  0     0  0
  2 30  1  0     0  0
  3 28  2  0     0  0
  4 12  2  0     0  0
  4 16  1  0     0  0
  5 12  1  0     0  0
  5 17  2  0     0  0
  6 13  1  0     0  0
  6 14  2  0     0  0
  7 13  2  0     0  0
  7 15  1  0     0  0
  8 14  1  0     0  0
  8 18  1  0     0  0
  9 12  1  0     0  0
  9 28  1  0     0  0
 10 11  1  0     0  0
 10 21  2  0     0  0
 11 22  2  0     0  0
 14 19  1  0     0  0
 15 19  2  0     0  0
 15 21  1  0     0  0
 16 18  2  0     0  0
 17 18  1  0     0  0
 19 22  1  0     0  0
 20 23  2  0     0  0
 20 24  1  0     0  0
 20 28  1  0     0  0
 23 25  1  0     0  0
 24 26  2  0     0  0
 25 27  2  0     0  0
 26 27  1  0     0  0
M  END
> <standard_type>
pIC50

> <# Confs.>
25

> <canonical_smiles>
O=C(NC1=NC=C(NC2=NC=NC3=C2C=C(OC)C(OC)=C3)C=N1)C4=CC=CC=C4

> <standard_relation>
=

> <Publication_ID>
nan

> <predicted_activity_value>
7.721246399047171

> <actual_activity_value>
7.6020599913279625

> <Compound>
11

> <standard_units>
nM

> hash
7075920698246586756

$$$$
10
XXILIB    08252103493D 0   0.00000     0.00000

 30 33  0     1  0            999 V2000
   -4.4884   -4.2234    1.9469 O   0  0  0  0  0  2           0  0  0
   -2.9023   -4.3841   -0.1114 O   0  0  0  0  0  2           0  0  0
    6.0078    0.0054   -2.1139 O   0  0  0  0  0  2           0  0  0
    3.5294    0.0028   -1.1341 N   0  0  0  0  0  3           0  0  0
    3.4641    0.0087    1.2529 N   0  0  0  0  0  3           0  0  0
   -0.8687    1.0294    1.9633 N   0  0  0  0  0  3           0  0  0
   -2.6218    0.0050    3.2376 N   0  0  0  0  0  3           0  0  0
    0.0000    0.0000    0.0000 N   0  0  0  0  0  3           0  0  0
    5.5367    0.0106    0.1523 N   0  0  0  0  0  3           0  0  0
   -3.6248   -3.1802    1.7694 C   0  0  0  0  0  4           0  0  0
   -2.7741   -3.2660    0.6626 C   0  0  0  0  0  4           0  0  0
    4.1270    0.0070    0.0776 C   0  0  0  0  0  4           0  0  0
   -1.7336    0.9772    2.9852 C   0  0  0  0  0  4           0  0  0
   -0.9059    0.0000    1.0820 C   0  0  0  0  0  4           0  0  0
   -2.6439   -1.0262    2.3829 C   0  0  0  0  0  4           0  0  0
    2.1767    0.0000   -1.1386 C   0  0  0  0  0  4           0  0  0
    2.1142    0.0059    1.1798 C   0  0  0  0  0  4           0  0  0
    1.3912    0.0000   -0.0000 C   0  0  0  0  0  4           0  0  0
   -1.7896   -1.0941    1.2661 C   0  0  0  0  0  4           0  0  0
    7.8286    0.0150   -0.6433 C   0  0  0  0  0  4           0  0  0
   -3.5431   -2.0653    2.6136 C   0  0  0  0  0  4           0  0  0
   -1.8654   -2.2297    0.4191 C   0  0  0  0  0  4           0  0  0
    8.2860   -0.5490    0.5486 C   0  0  0  0  0  4           0  0  0
    8.7137    0.5672   -1.5702 C   0  0  0  0  0  4           0  0  0
    9.6541   -0.5504    0.8173 C   0  0  0  0  0  4           0  0  0
   10.0797    0.5603   -1.2916 C   0  0  0  0  0  4           0  0  0
   10.5492    0.0035   -0.1001 C   0  0  0  0  0  4           0  0  0
    6.3764    0.0096   -0.9413 C   0  0  0  0  0  4           0  0  0
   -5.3479   -4.1201    3.0790 C   0  0  0  0  0  4           0  0  0
   -2.0276   -4.4543   -1.2344 C   0  0  0  0  0  4           0  0  0
  1 10  1  0     0  0
  1 29  1  0     0  0
  2 11  1  0     0  0
  2 30  1  0     0  0
  3 28  2  0     0  0
  4 12  2  0     0  0
  4 16  1  0     0  0
  5 12  1  0     0  0
  5 17  2  0     0  0
  6 13  1  0     0  0
  6 14  2  0     0  0
  7 13  2  0     0  0
  7 15  1  0     0  0
  8 14  1  0     0  0
  8 18  1  0     0  0
  9 12  1  0     0  0
  9 28  1  0     0  0
 10 11  1  0     0  0
 10 21  2  0     0  0
 11 22  2  0     0  0
 14 19  1  0     0  0
 15 19  2  0     0  0
 15 21  1  0     0  0
 16 18  2  0     0  0
 17 18  1  0     0  0
 19 22  1  0     0  0
 20 23  2  0     0  0
 20 24  1  0     0  0
 20 28  1  0     0  0
 23 25  1  0     0  0
 24 26  2  0     0  0
 25 27  2  0     0  0
 26 27  1  0     0  0
M  END
> <standard_type>
pIC50

> <# Confs.>
25

> <canonical_smiles>
O=C(NC1=NC=C(NC2=NC=NC3=C2C=C(OC)C(OC)=C3)C=N1)C4=CC=CC=C4

> <standard_relation>
=

> <Publication_ID>
nan

> <predicted_activity_value>
7.721246399047171

> <actual_activity_value>
7.6020599913279625

> <Compound>
11

> <standard_units>
nM

> hash
7075920698246586756

$$$$
10
XXILIB    08252103493D 0   0.00000     0.00000

 30 33  0     1  0            999 V2000
   -6.4526   -0.2137    0.3023 O   0  0  0  0  0  2           0  0  0
   -4.9329   -0.2030   -1.8115 O   0  0  0  0  0  2           0  0  0
    6.0078   -1.0523   -1.8334 O   0  0  0  0  0  2           0  0  0
    3.5294   -0.5646   -0.9836 N   0  0  0  0  0  3           0  0  0
    3.4641    0.6340    1.0807 N   0  0  0  0  0  3           0  0  0
   -0.4131    0.0000    2.3449 N   0  0  0  0  0  3           0  0  0
   -2.6446   -0.0566    3.2185 N   0  0  0  0  0  3           0  0  0
    0.0000    0.0000   -0.0000 N   0  0  0  0  0  3           0  0  0
    5.5367    0.0854    0.1266 N   0  0  0  0  0  3           0  0  0
   -5.1065   -0.1668    0.5288 C   0  0  0  0  0  4           0  0  0
   -4.2904   -0.1593   -0.6070 C   0  0  0  0  0  4           0  0  0
    4.1270    0.0448    0.0637 C   0  0  0  0  0  4           0  0  0
   -1.3098   -0.0200    3.3400 C   0  0  0  0  0  4           0  0  0
   -0.9059    0.0000    1.0820 C   0  0  0  0  0  4           0  0  0
   -3.1347   -0.0823    1.9721 C   0  0  0  0  0  4           0  0  0
    2.1767   -0.5693   -0.9860 C   0  0  0  0  0  4           0  0  0
    2.1142    0.5950    1.0188 C   0  0  0  0  0  4           0  0  0
    1.3912   -0.0000   -0.0000 C   0  0  0  0  0  4           0  0  0
   -2.3016   -0.0626    0.8374 C   0  0  0  0  0  4           0  0  0
    7.8286   -0.3087   -0.5646 C   0  0  0  0  0  4           0  0  0
   -4.5162   -0.1330    1.7989 C   0  0  0  0  0  4           0  0  0
   -2.9008   -0.1092   -0.4477 C   0  0  0  0  0  4           0  0  0
    8.2860   -0.2011    0.7496 C   0  0  0  0  0  4           0  0  0
    8.7137   -0.2939   -1.6434 C   0  0  0  0  0  4           0  0  0
    9.6541   -0.0680    0.9830 C   0  0  0  0  0  4           0  0  0
   10.0797   -0.1606   -1.3987 C   0  0  0  0  0  4           0  0  0
   10.5492   -0.0471   -0.0885 C   0  0  0  0  0  4           0  0  0
    6.3764   -0.4623   -0.8200 C   0  0  0  0  0  4           0  0  0
   -7.2695   -0.2207    1.4702 C   0  0  0  0  0  4           0  0  0
   -4.0855   -0.1946   -2.9574 C   0  0  0  0  0  4           0  0  0
  1 10  1  0     0  0
  1 29  1  0     0  0
  2 11  1  0     0  0
  2 30  1  0     0  0
  3 28  2  0     0  0
  4 12  2  0     0  0
  4 16  1  0     0  0
  5 12  1  0     0  0
  5 17  2  0     0  0
  6 13  1  0     0  0
  6 14  2  0     0  0
  7 13  2  0     0  0
  7 15  1  0     0  0
  8 14  1  0     0  0
  8 18  1  0     0  0
  9 12  1  0     0  0
  9 28  1  0     0  0
 10 11  1  0     0  0
 10 21  2  0     0  0
 11 22  2  0     0  0
 14 19  1  0     0  0
 15 19  2  0     0  0
 15 21  1  0     0  0
 16 18  2  0     0  0
 17 18  1  0     0  0
 19 22  1  0     0  0
 20 23  2  0     0  0
 20 24  1  0     0  0
 20 28  1  0     0  0
 23 25  1  0     0  0
 24 26  2  0     0  0
 25 27  2  0     0  0
 26 27  1  0     0  0
M  END
> <standard_type>
pIC50

> <# Confs.>
25

> <canonical_smiles>
O=C(NC1=NC=C(NC2=NC=NC3=C2C=C(OC)C(OC)=C3)C=N1)C4=CC=CC=C4

> <standard_relation>
=

> <Publication_ID>
nan

> <predicted_activity_value>
7.721246399047171

> <actual_activity_value>
7.6020599913279625

> <Compound>
11

> <standard_units>
nM

> hash
7075920698246586756

$$$$
10
XXILIB    08252103493D 0   0.00000     0.00000

 30 33  0     1  0            999 V2000
   -4.7722    4.0097    1.7093 O   0  0  0  0  0  2           0  0  0
   -3.1718    4.1812   -0.3371 O   0  0  0  0  0  2           0  0  0
    6.0078    0.0054   -2.1139 O   0  0  0  0  0  2           0  0  0
    3.5294    0.0028   -1.1341 N   0  0  0  0  0  3           0  0  0
    3.4641    0.0087    1.2529 N   0  0  0  0  0  3           0  0  0
   -0.8687   -1.0294    1.9633 N   0  0  0  0  0  3           0  0  0
   -2.6969   -0.0615    3.1747 N   0  0  0  0  0  3           0  0  0
    0.0000    0.0000    0.0000 N   0  0  0  0  0  3           0  0  0
    5.5367    0.0106    0.1523 N   0  0  0  0  0  3           0  0  0
   -3.8464    3.0133    1.5838 C   0  0  0  0  0  4           0  0  0
   -2.9856    3.1067    0.4854 C   0  0  0  0  0  4           0  0  0
    4.1270    0.0070    0.0776 C   0  0  0  0  0  4           0  0  0
   -1.7601   -0.9971    2.9631 C   0  0  0  0  0  4           0  0  0
   -0.9059    0.0000    1.0820 C   0  0  0  0  0  4           0  0  0
   -2.7532    0.9439    2.2914 C   0  0  0  0  0  4           0  0  0
    2.1767    0.0000   -1.1386 C   0  0  0  0  0  4           0  0  0
    2.1142    0.0059    1.1798 C   0  0  0  0  0  4           0  0  0
    1.3912    0.0000   -0.0000 C   0  0  0  0  0  4           0  0  0
   -1.8727    1.0315    1.1965 C   0  0  0  0  0  4           0  0  0
    7.8286    0.0150   -0.6433 C   0  0  0  0  0  4           0  0  0
   -3.7197    1.9323    2.4658 C   0  0  0  0  0  4           0  0  0
   -2.0104    2.1205    0.2977 C   0  0  0  0  0  4           0  0  0
    8.2860   -0.5490    0.5486 C   0  0  0  0  0  4           0  0  0
    8.7137    0.5672   -1.5702 C   0  0  0  0  0  4           0  0  0
    9.6541   -0.5504    0.8173 C   0  0  0  0  0  4           0  0  0
   10.0797    0.5603   -1.2916 C   0  0  0  0  0  4           0  0  0
   10.5492    0.0035   -0.1001 C   0  0  0  0  0  4           0  0  0
    6.3764    0.0096   -0.9413 C   0  0  0  0  0  4           0  0  0
   -5.6410    3.8994    2.8336 C   0  0  0  0  0  4           0  0  0
   -2.2860    4.2597   -1.4507 C   0  0  0  0  0  4           0  0  0
  1 10  1  0     0  0
  1 29  1  0     0  0
  2 11  1  0     0  0
  2 30  1  0     0  0
  3 28  2  0     0  0
  4 12  2  0     0  0
  4 16  1  0     0  0
  5 12  1  0     0  0
  5 17  2  0     0  0
  6 13  1  0     0  0
  6 14  2  0     0  0
  7 13  2  0     0  0
  7 15  1  0     0  0
  8 14  1  0     0  0
  8 18  1  0     0  0
  9 12  1  0     0  0
  9 28  1  0     0  0
 10 11  1  0     0  0
 10 21  2  0     0  0
 11 22  2  0     0  0
 14 19  1  0     0  0
 15 19  2  0     0  0
 15 21  1  0     0  0
 16 18  2  0     0  0
 17 18  1  0     0  0
 19 22  1  0     0  0
 20 23  2  0     0  0
 20 24  1  0     0  0
 20 28  1  0     0  0
 23 25  1  0     0  0
 24 26  2  0     0  0
 25 27  2  0     0  0
 26 27  1  0     0  0
M  END
> <standard_type>
pIC50

> <# Confs.>
25

> <canonical_smiles>
O=C(NC1=NC=C(NC2=NC=NC3=C2C=C(OC)C(OC)=C3)C=N1)C4=CC=CC=C4

> <standard_relation>
=

> <Publication_ID>
nan

> <predicted_activity_value>
7.721246399047171

> <actual_activity_value>
7.6020599913279625

> <Compound>
11

> <standard_units>
nM

> hash
7075920698246586756

$$$$
10
XXILIB    08252103493D 0   0.00000     0.00000

 30 33  0     1  0            999 V2000
   -6.0463    2.1917    0.6426 O   0  0  0  0  0  2           0  0  0
   -4.5027    2.2968   -1.4514 O   0  0  0  0  0  2           0  0  0
    6.0078   -1.0523   -1.8334 O   0  0  0  0  0  2           0  0  0
    3.5294   -0.5646   -0.9836 N   0  0  0  0  0  3           0  0  0
    3.4641    0.6340    1.0807 N   0  0  0  0  0  3           0  0  0
   -0.5352   -0.5943    2.2426 N   0  0  0  0  0  3           0  0  0
   -2.6702   -0.0682    3.1970 N   0  0  0  0  0  3           0  0  0
    0.0000    0.0000    0.0000 N   0  0  0  0  0  3           0  0  0
    5.5367    0.0854    0.1266 N   0  0  0  0  0  3           0  0  0
   -4.8031    1.6434    0.7828 C   0  0  0  0  0  4           0  0  0
   -3.9735    1.7016   -0.3417 C   0  0  0  0  0  4           0  0  0
    4.1270    0.0448    0.0637 C   0  0  0  0  0  4           0  0  0
   -1.4346   -0.5872    3.2356 C   0  0  0  0  0  4           0  0  0
   -0.9059   -0.0000    1.0820 C   0  0  0  0  0  4           0  0  0
   -3.0494    0.4975    2.0435 C   0  0  0  0  0  4           0  0  0
    2.1767   -0.5693   -0.9860 C   0  0  0  0  0  4           0  0  0
    2.1142    0.5950    1.0188 C   0  0  0  0  0  4           0  0  0
    1.3912   -0.0000   -0.0000 C   0  0  0  0  0  4           0  0  0
   -2.1996    0.5594    0.9228 C   0  0  0  0  0  4           0  0  0
    7.8286   -0.3087   -0.5646 C   0  0  0  0  0  4           0  0  0
   -4.3301    1.0388    1.9547 C   0  0  0  0  0  4           0  0  0
   -2.6846    1.1612   -0.2668 C   0  0  0  0  0  4           0  0  0
    8.7214   -1.2368   -1.1026 C   0  0  0  0  0  4           0  0  0
    8.2777    0.7734    0.1938 C   0  0  0  0  0  4           0  0  0
   10.0866   -1.0799   -0.8676 C   0  0  0  0  0  4           0  0  0
    9.6450    0.9209    0.4224 C   0  0  0  0  0  4           0  0  0
   10.5478   -0.0040   -0.1064 C   0  0  0  0  0  4           0  0  0
    6.3764   -0.4623   -0.8200 C   0  0  0  0  0  4           0  0  0
   -6.8785    2.1239    1.7975 C   0  0  0  0  0  4           0  0  0
   -4.2856    3.7016   -1.5543 C   0  0  0  0  0  4           0  0  0
  1 10  1  0     0  0
  1 29  1  0     0  0
  2 11  1  0     0  0
  2 30  1  0     0  0
  3 28  2  0     0  0
  4 12  2  0     0  0
  4 16  1  0     0  0
  5 12  1  0     0  0
  5 17  2  0     0  0
  6 13  1  0     0  0
  6 14  2  0     0  0
  7 13  2  0     0  0
  7 15  1  0     0  0
  8 14  1  0     0  0
  8 18  1  0     0  0
  9 12  1  0     0  0
  9 28  1  0     0  0
 10 11  1  0     0  0
 10 21  2  0     0  0
 11 22  2  0     0  0
 14 19  1  0     0  0
 15 19  2  0     0  0
 15 21  1  0     0  0
 16 18  2  0     0  0
 17 18  1  0     0  0
 19 22  1  0     0  0
 20 23  2  0     0  0
 20 24  1  0     0  0
 20 28  1  0     0  0
 23 25  1  0     0  0
 24 26  2  0     0  0
 25 27  2  0     0  0
 26 27  1  0     0  0
M  END
> <standard_type>
pIC50

> <# Confs.>
25

> <canonical_smiles>
O=C(NC1=NC=C(NC2=NC=NC3=C2C=C(OC)C(OC)=C3)C=N1)C4=CC=CC=C4

> <standard_relation>
=

> <Publication_ID>
nan

> <predicted_activity_value>
7.721246399047171

> <actual_activity_value>
7.6020599913279625

> <Compound>
11

> <standard_units>
nM

> hash
7075920698246586756

$$$$
10
XXILIB    08252103493D 0   0.00000     0.00000

 30 33  0     1  0            999 V2000
   -6.4526   -0.2137    0.3023 O   0  0  0  0  0  2           0  0  0
   -4.9329   -0.2030   -1.8115 O   0  0  0  0  0  2           0  0  0
    6.0078    1.0523    1.8334 O   0  0  0  0  0  2           0  0  0
    3.5294    0.5646    0.9836 N   0  0  0  0  0  3           0  0  0
    3.4641   -0.6340   -1.0807 N   0  0  0  0  0  3           0  0  0
   -0.4131    0.0000    2.3449 N   0  0  0  0  0  3           0  0  0
   -2.6446   -0.0566    3.2185 N   0  0  0  0  0  3           0  0  0
    0.0000    0.0000   -0.0000 N   0  0  0  0  0  3           0  0  0
    5.5367   -0.0854   -0.1266 N   0  0  0  0  0  3           0  0  0
   -5.1065   -0.1668    0.5288 C   0  0  0  0  0  4           0  0  0
   -4.2904   -0.1593   -0.6070 C   0  0  0  0  0  4           0  0  0
    4.1270   -0.0448   -0.0637 C   0  0  0  0  0  4           0  0  0
   -1.3098   -0.0200    3.3400 C   0  0  0  0  0  4           0  0  0
   -0.9059    0.0000    1.0820 C   0  0  0  0  0  4           0  0  0
   -3.1347   -0.0823    1.9721 C   0  0  0  0  0  4           0  0  0
    2.1767    0.5693    0.9860 C   0  0  0  0  0  4           0  0  0
    2.1142   -0.5950   -1.0188 C   0  0  0  0  0  4           0  0  0
    1.3912    0.0000    0.0000 C   0  0  0  0  0  4           0  0  0
   -2.3016   -0.0626    0.8374 C   0  0  0  0  0  4           0  0  0
    7.8286    0.3087    0.5646 C   0  0  0  0  0  4           0  0  0
   -4.5162   -0.1330    1.7989 C   0  0  0  0  0  4           0  0  0
   -2.9008   -0.1092   -0.4477 C   0  0  0  0  0  4           0  0  0
    8.7214    1.2368    1.1026 C   0  0  0  0  0  4           0  0  0
    8.2777   -0.7734   -0.1938 C   0  0  0  0  0  4           0  0  0
   10.0866    1.0799    0.8676 C   0  0  0  0  0  4           0  0  0
    9.6450   -0.9209   -0.4224 C   0  0  0  0  0  4           0  0  0
   10.5478    0.0040    0.1064 C   0  0  0  0  0  4           0  0  0
    6.3764    0.4623    0.8200 C   0  0  0  0  0  4           0  0  0
   -7.2695   -0.2207    1.4702 C   0  0  0  0  0  4           0  0  0
   -4.0855   -0.1946   -2.9574 C   0  0  0  0  0  4           0  0  0
  1 10  1  0     0  0
  1 29  1  0     0  0
  2 11  1  0     0  0
  2 30  1  0     0  0
  3 28  2  0     0  0
  4 12  2  0     0  0
  4 16  1  0     0  0
  5 12  1  0     0  0
  5 17  2  0     0  0
  6 13  1  0     0  0
  6 14  2  0     0  0
  7 13  2  0     0  0
  7 15  1  0     0  0
  8 14  1  0     0  0
  8 18  1  0     0  0
  9 12  1  0     0  0
  9 28  1  0     0  0
 10 11  1  0     0  0
 10 21  2  0     0  0
 11 22  2  0     0  0
 14 19  1  0     0  0
 15 19  2  0     0  0
 15 21  1  0     0  0
 16 18  2  0     0  0
 17 18  1  0     0  0
 19 22  1  0     0  0
 20 23  2  0     0  0
 20 24  1  0     0  0
 20 28  1  0     0  0
 23 25  1  0     0  0
 24 26  2  0     0  0
 25 27  2  0     0  0
 26 27  1  0     0  0
M  END
> <standard_type>
pIC50

> <# Confs.>
25

> <canonical_smiles>
O=C(NC1=NC=C(NC2=NC=NC3=C2C=C(OC)C(OC)=C3)C=N1)C4=CC=CC=C4

> <standard_relation>
=

> <Publication_ID>
nan

> <predicted_activity_value>
7.721246399047171

> <actual_activity_value>
7.6020599913279625

> <Compound>
11

> <standard_units>
nM

> hash
7075920698246586756

$$$$
10
XXILIB    08252103493D 0   0.00000     0.00000

 30 33  0     1  0            999 V2000
   -4.4884   -4.2234    1.9469 O   0  0  0  0  0  2           0  0  0
   -2.9023   -4.3841   -0.1114 O   0  0  0  0  0  2           0  0  0
    6.0078   -0.0054    2.1139 O   0  0  0  0  0  2           0  0  0
    3.5294   -0.0028    1.1341 N   0  0  0  0  0  3           0  0  0
    3.4641   -0.0087   -1.2529 N   0  0  0  0  0  3           0  0  0
   -0.8687    1.0294    1.9633 N   0  0  0  0  0  3           0  0  0
   -2.6218    0.0050    3.2376 N   0  0  0  0  0  3           0  0  0
    0.0000    0.0000    0.0000 N   0  0  0  0  0  3           0  0  0
    5.5367   -0.0106   -0.1523 N   0  0  0  0  0  3           0  0  0
   -3.6248   -3.1802    1.7694 C   0  0  0  0  0  4           0  0  0
   -2.7741   -3.2660    0.6626 C   0  0  0  0  0  4           0  0  0
    4.1270   -0.0070   -0.0776 C   0  0  0  0  0  4           0  0  0
   -1.7336    0.9772    2.9852 C   0  0  0  0  0  4           0  0  0
   -0.9059    0.0000    1.0820 C   0  0  0  0  0  4           0  0  0
   -2.6439   -1.0262    2.3829 C   0  0  0  0  0  4           0  0  0
    2.1767   -0.0000    1.1386 C   0  0  0  0  0  4           0  0  0
    2.1142   -0.0059   -1.1798 C   0  0  0  0  0  4           0  0  0
    1.3912    0.0000    0.0000 C   0  0  0  0  0  4           0  0  0
   -1.7896   -1.0941    1.2661 C   0  0  0  0  0  4           0  0  0
    7.8286   -0.0150    0.6433 C   0  0  0  0  0  4           0  0  0
   -3.5431   -2.0653    2.6136 C   0  0  0  0  0  4           0  0  0
   -1.8654   -2.2297    0.4191 C   0  0  0  0  0  4           0  0  0
    8.2860    0.5490   -0.5486 C   0  0  0  0  0  4           0  0  0
    8.7137   -0.5672    1.5702 C   0  0  0  0  0  4           0  0  0
    9.6541    0.5504   -0.8173 C   0  0  0  0  0  4           0  0  0
   10.0797   -0.5603    1.2916 C   0  0  0  0  0  4           0  0  0
   10.5492   -0.0035    0.1001 C   0  0  0  0  0  4           0  0  0
    6.3764   -0.0096    0.9413 C   0  0  0  0  0  4           0  0  0
   -5.3479   -4.1201    3.0790 C   0  0  0  0  0  4           0  0  0
   -2.0276   -4.4543   -1.2344 C   0  0  0  0  0  4           0  0  0
  1 10  1  0     0  0
  1 29  1  0     0  0
  2 11  1  0     0  0
  2 30  1  0     0  0
  3 28  2  0     0  0
  4 12  2  0     0  0
  4 16  1  0     0  0
  5 12  1  0     0  0
  5 17  2  0     0  0
  6 13  1  0     0  0
  6 14  2  0     0  0
  7 13  2  0     0  0
  7 15  1  0     0  0
  8 14  1  0     0  0
  8 18  1  0     0  0
  9 12  1  0     0  0
  9 28  1  0     0  0
 10 11  1  0     0  0
 10 21  2  0     0  0
 11 22  2  0     0  0
 14 19  1  0     0  0
 15 19  2  0     0  0
 15 21  1  0     0  0
 16 18  2  0     0  0
 17 18  1  0     0  0
 19 22  1  0     0  0
 20 23  2  0     0  0
 20 24  1  0     0  0
 20 28  1  0     0  0
 23 25  1  0     0  0
 24 26  2  0     0  0
 25 27  2  0     0  0
 26 27  1  0     0  0
M  END
> <standard_type>
pIC50

> <# Confs.>
25

> <canonical_smiles>
O=C(NC1=NC=C(NC2=NC=NC3=C2C=C(OC)C(OC)=C3)C=N1)C4=CC=CC=C4

> <standard_relation>
=

> <Publication_ID>
nan

> <predicted_activity_value>
7.721246399047171

> <actual_activity_value>
7.6020599913279625

> <Compound>
11

> <standard_units>
nM

> hash
7075920698246586756

$$$$
10
XXILIB    08252103493D 0   0.00000     0.00000

 30 33  0     1  0            999 V2000
   -6.4526   -0.2137    0.3023 O   0  0  0  0  0  2           0  0  0
   -4.9329   -0.2030   -1.8115 O   0  0  0  0  0  2           0  0  0
    6.0078   -0.0054    2.1139 O   0  0  0  0  0  2           0  0  0
    3.5294   -0.0028    1.1341 N   0  0  0  0  0  3           0  0  0
    3.4641   -0.0087   -1.2529 N   0  0  0  0  0  3           0  0  0
   -0.4131    0.0000    2.3449 N   0  0  0  0  0  3           0  0  0
   -2.6446   -0.0566    3.2185 N   0  0  0  0  0  3           0  0  0
    0.0000    0.0000   -0.0000 N   0  0  0  0  0  3           0  0  0
    5.5367   -0.0106   -0.1523 N   0  0  0  0  0  3           0  0  0
   -5.1065   -0.1668    0.5288 C   0  0  0  0  0  4           0  0  0
   -4.2904   -0.1593   -0.6070 C   0  0  0  0  0  4           0  0  0
    4.1270   -0.0070   -0.0776 C   0  0  0  0  0  4           0  0  0
   -1.3098   -0.0200    3.3400 C   0  0  0  0  0  4           0  0  0
   -0.9059    0.0000    1.0820 C   0  0  0  0  0  4           0  0  0
   -3.1347   -0.0823    1.9721 C   0  0  0  0  0  4           0  0  0
    2.1767   -0.0000    1.1386 C   0  0  0  0  0  4           0  0  0
    2.1142   -0.0059   -1.1798 C   0  0  0  0  0  4           0  0  0
    1.3912    0.0000    0.0000 C   0  0  0  0  0  4           0  0  0
   -2.3016   -0.0626    0.8374 C   0  0  0  0  0  4           0  0  0
    7.8286   -0.0150    0.6433 C   0  0  0  0  0  4           0  0  0
   -4.5162   -0.1330    1.7989 C   0  0  0  0  0  4           0  0  0
   -2.9008   -0.1092   -0.4477 C   0  0  0  0  0  4           0  0  0
    8.2860    0.5490   -0.5486 C   0  0  0  0  0  4           0  0  0
    8.7137   -0.5672    1.5702 C   0  0  0  0  0  4           0  0  0
    9.6541    0.5504   -0.8173 C   0  0  0  0  0  4           0  0  0
   10.0797   -0.5603    1.2916 C   0  0  0  0  0  4           0  0  0
   10.5492   -0.0035    0.1001 C   0  0  0  0  0  4           0  0  0
    6.3764   -0.0096    0.9413 C   0  0  0  0  0  4           0  0  0
   -7.2695   -0.2207    1.4702 C   0  0  0  0  0  4           0  0  0
   -4.0855   -0.1946   -2.9574 C   0  0  0  0  0  4           0  0  0
  1 10  1  0     0  0
  1 29  1  0     0  0
  2 11  1  0     0  0
  2 30  1  0     0  0
  3 28  2  0     0  0
  4 12  2  0     0  0
  4 16  1  0     0  0
  5 12  1  0     0  0
  5 17  2  0     0  0
  6 13  1  0     0  0
  6 14  2  0     0  0
  7 13  2  0     0  0
  7 15  1  0     0  0
  8 14  1  0     0  0
  8 18  1  0     0  0
  9 12  1  0     0  0
  9 28  1  0     0  0
 10 11  1  0     0  0
 10 21  2  0     0  0
 11 22  2  0     0  0
 14 19  1  0     0  0
 15 19  2  0     0  0
 15 21  1  0     0  0
 16 18  2  0     0  0
 17 18  1  0     0  0
 19 22  1  0     0  0
 20 23  2  0     0  0
 20 24  1  0     0  0
 20 28  1  0     0  0
 23 25  1  0     0  0
 24 26  2  0     0  0
 25 27  2  0     0  0
 26 27  1  0     0  0
M  END
> <standard_type>
pIC50

> <# Confs.>
25

> <canonical_smiles>
O=C(NC1=NC=C(NC2=NC=NC3=C2C=C(OC)C(OC)=C3)C=N1)C4=CC=CC=C4

> <standard_relation>
=

> <Publication_ID>
nan

> <predicted_activity_value>
7.721246399047171

> <actual_activity_value>
7.6020599913279625

> <Compound>
11

> <standard_units>
nM

> hash
7075920698246586756

$$$$
10
XXILIB    08252103493D 0   0.00000     0.00000

 30 33  0     1  0            999 V2000
   -4.7722    4.0097    1.7093 O   0  0  0  0  0  2           0  0  0
   -3.1718    4.1812   -0.3371 O   0  0  0  0  0  2           0  0  0
    6.0078   -0.0054    2.1139 O   0  0  0  0  0  2           0  0  0
    3.5294   -0.0028    1.1341 N   0  0  0  0  0  3           0  0  0
    3.4641   -0.0087   -1.2529 N   0  0  0  0  0  3           0  0  0
   -0.8687   -1.0294    1.9633 N   0  0  0  0  0  3           0  0  0
   -2.6969   -0.0615    3.1747 N   0  0  0  0  0  3           0  0  0
    0.0000    0.0000    0.0000 N   0  0  0  0  0  3           0  0  0
    5.5367   -0.0106   -0.1523 N   0  0  0  0  0  3           0  0  0
   -3.8464    3.0133    1.5838 C   0  0  0  0  0  4           0  0  0
   -2.9856    3.1067    0.4854 C   0  0  0  0  0  4           0  0  0
    4.1270   -0.0070   -0.0776 C   0  0  0  0  0  4           0  0  0
   -1.7601   -0.9971    2.9631 C   0  0  0  0  0  4           0  0  0
   -0.9059    0.0000    1.0820 C   0  0  0  0  0  4           0  0  0
   -2.7532    0.9439    2.2914 C   0  0  0  0  0  4           0  0  0
    2.1767   -0.0000    1.1386 C   0  0  0  0  0  4           0  0  0
    2.1142   -0.0059   -1.1798 C   0  0  0  0  0  4           0  0  0
    1.3912    0.0000    0.0000 C   0  0  0  0  0  4           0  0  0
   -1.8727    1.0315    1.1965 C   0  0  0  0  0  4           0  0  0
    7.8286   -0.0150    0.6433 C   0  0  0  0  0  4           0  0  0
   -3.7197    1.9323    2.4658 C   0  0  0  0  0  4           0  0  0
   -2.0104    2.1205    0.2977 C   0  0  0  0  0  4           0  0  0
    8.2860    0.5490   -0.5486 C   0  0  0  0  0  4           0  0  0
    8.7137   -0.5672    1.5702 C   0  0  0  0  0  4           0  0  0
    9.6541    0.5504   -0.8173 C   0  0  0  0  0  4           0  0  0
   10.0797   -0.5603    1.2916 C   0  0  0  0  0  4           0  0  0
   10.5492   -0.0035    0.1001 C   0  0  0  0  0  4           0  0  0
    6.3764   -0.0096    0.9413 C   0  0  0  0  0  4           0  0  0
   -5.6410    3.8994    2.8336 C   0  0  0  0  0  4           0  0  0
   -2.2860    4.2597   -1.4507 C   0  0  0  0  0  4           0  0  0
  1 10  1  0     0  0
  1 29  1  0     0  0
  2 11  1  0     0  0
  2 30  1  0     0  0
  3 28  2  0     0  0
  4 12  2  0     0  0
  4 16  1  0     0  0
  5 12  1  0     0  0
  5 17  2  0     0  0
  6 13  1  0     0  0
  6 14  2  0     0  0
  7 13  2  0     0  0
  7 15  1  0     0  0
  8 14  1  0     0  0
  8 18  1  0     0  0
  9 12  1  0     0  0
  9 28  1  0     0  0
 10 11  1  0     0  0
 10 21  2  0     0  0
 11 22  2  0     0  0
 14 19  1  0     0  0
 15 19  2  0     0  0
 15 21  1  0     0  0
 16 18  2  0     0  0
 17 18  1  0     0  0
 19 22  1  0     0  0
 20 23  2  0     0  0
 20 24  1  0     0  0
 20 28  1  0     0  0
 23 25  1  0     0  0
 24 26  2  0     0  0
 25 27  2  0     0  0
 26 27  1  0     0  0
M  END
> <standard_type>
pIC50

> <# Confs.>
25

> <canonical_smiles>
O=C(NC1=NC=C(NC2=NC=NC3=C2C=C(OC)C(OC)=C3)C=N1)C4=CC=CC=C4

> <standard_relation>
=

> <Publication_ID>
nan

> <predicted_activity_value>
7.721246399047171

> <actual_activity_value>
7.6020599913279625

> <Compound>
11

> <standard_units>
nM

> hash
7075920698246586756

$$$$
10
XXILIB    08252103493D 0   0.00000     0.00000

 30 33  0     1  0            999 V2000
   -6.0463    2.1917    0.6426 O   0  0  0  0  0  2           0  0  0
   -4.5027    2.2968   -1.4514 O   0  0  0  0  0  2           0  0  0
    6.0078    1.0616   -1.8280 O   0  0  0  0  0  2           0  0  0
    3.5294    0.5695   -0.9808 N   0  0  0  0  0  3           0  0  0
    3.4641   -0.6189    1.0894 N   0  0  0  0  0  3           0  0  0
   -0.5352   -0.5943    2.2426 N   0  0  0  0  0  3           0  0  0
   -2.6702   -0.0682    3.1970 N   0  0  0  0  0  3           0  0  0
    0.0000    0.0000    0.0000 N   0  0  0  0  0  3           0  0  0
    5.5367   -0.0670    0.1373 N   0  0  0  0  0  3           0  0  0
   -4.8031    1.6434    0.7828 C   0  0  0  0  0  4           0  0  0
   -3.9735    1.7016   -0.3417 C   0  0  0  0  0  4           0  0  0
    4.1270   -0.0327    0.0707 C   0  0  0  0  0  4           0  0  0
   -1.4346   -0.5872    3.2356 C   0  0  0  0  0  4           0  0  0
   -0.9059   -0.0000    1.0820 C   0  0  0  0  0  4           0  0  0
   -3.0494    0.4975    2.0435 C   0  0  0  0  0  4           0  0  0
    2.1767    0.5693   -0.9860 C   0  0  0  0  0  4           0  0  0
    2.1142   -0.5849    1.0247 C   0  0  0  0  0  4           0  0  0
    1.3912    0.0000   -0.0000 C   0  0  0  0  0  4           0  0  0
   -2.1996    0.5594    0.9228 C   0  0  0  0  0  4           0  0  0
    7.8286    0.3346   -0.5496 C   0  0  0  0  0  4           0  0  0
   -4.3301    1.0388    1.9547 C   0  0  0  0  0  4           0  0  0
   -2.6846    1.1612   -0.2668 C   0  0  0  0  0  4           0  0  0
    8.2860   -0.7497    0.2006 C   0  0  0  0  0  4           0  0  0
    8.7137    1.2763   -1.0762 C   0  0  0  0  0  4           0  0  0
    9.6541   -0.8853    0.4326 C   0  0  0  0  0  4           0  0  0
   10.0797    1.1310   -0.8384 C   0  0  0  0  0  4           0  0  0
   10.5492    0.0531   -0.0850 C   0  0  0  0  0  4           0  0  0
    6.3764    0.4789   -0.8104 C   0  0  0  0  0  4           0  0  0
   -6.8785    2.1239    1.7975 C   0  0  0  0  0  4           0  0  0
   -3.6433    2.3470   -2.5871 C   0  0  0  0  0  4           0  0  0
  1 10  1  0     0  0
  1 29  1  0     0  0
  2 11  1  0     0  0
  2 30  1  0     0  0
  3 28  2  0     0  0
  4 12  2  0     0  0
  4 16  1  0     0  0
  5 12  1  0     0  0
  5 17  2  0     0  0
  6 13  1  0     0  0
  6 14  2  0     0  0
  7 13  2  0     0  0
  7 15  1  0     0  0
  8 14  1  0     0  0
  8 18  1  0     0  0
  9 12  1  0     0  0
  9 28  1  0     0  0
 10 11  1  0     0  0
 10 21  2  0     0  0
 11 22  2  0     0  0
 14 19  1  0     0  0
 15 19  2  0     0  0
 15 21  1  0     0  0
 16 18  2  0     0  0
 17 18  1  0     0  0
 19 22  1  0     0  0
 20 23  2  0     0  0
 20 24  1  0     0  0
 20 28  1  0     0  0
 23 25  1  0     0  0
 24 26  2  0     0  0
 25 27  2  0     0  0
 26 27  1  0     0  0
M  END
> <standard_type>
pIC50

> <# Confs.>
25

> <canonical_smiles>
O=C(NC1=NC=C(NC2=NC=NC3=C2C=C(OC)C(OC)=C3)C=N1)C4=CC=CC=C4

> <standard_relation>
=

> <Publication_ID>
nan

> <predicted_activity_value>
7.721246399047171

> <actual_activity_value>
7.6020599913279625

> <Compound>
11

> <standard_units>
nM

> hash
7075920698246586756

$$$$
10
XXILIB    08252103493D 0   0.00000     0.00000

 30 33  0     1  0            999 V2000
   -6.4526   -0.2137    0.3023 O   0  0  0  0  0  2           0  0  0
   -4.9329   -0.2030   -1.8115 O   0  0  0  0  0  2           0  0  0
    6.0078    1.0616   -1.8280 O   0  0  0  0  0  2           0  0  0
    3.5294    0.5695   -0.9808 N   0  0  0  0  0  3           0  0  0
    3.4641   -0.6189    1.0894 N   0  0  0  0  0  3           0  0  0
   -0.4131    0.0000    2.3449 N   0  0  0  0  0  3           0  0  0
   -2.6446   -0.0566    3.2185 N   0  0  0  0  0  3           0  0  0
    0.0000    0.0000   -0.0000 N   0  0  0  0  0  3           0  0  0
    5.5367   -0.0670    0.1373 N   0  0  0  0  0  3           0  0  0
   -5.1065   -0.1668    0.5288 C   0  0  0  0  0  4           0  0  0
   -4.2904   -0.1593   -0.6070 C   0  0  0  0  0  4           0  0  0
    4.1270   -0.0327    0.0707 C   0  0  0  0  0  4           0  0  0
   -1.3098   -0.0200    3.3400 C   0  0  0  0  0  4           0  0  0
   -0.9059    0.0000    1.0820 C   0  0  0  0  0  4           0  0  0
   -3.1347   -0.0823    1.9721 C   0  0  0  0  0  4           0  0  0
    2.1767    0.5693   -0.9860 C   0  0  0  0  0  4           0  0  0
    2.1142   -0.5849    1.0247 C   0  0  0  0  0  4           0  0  0
    1.3912    0.0000   -0.0000 C   0  0  0  0  0  4           0  0  0
   -2.3016   -0.0626    0.8374 C   0  0  0  0  0  4           0  0  0
    7.8286    0.3346   -0.5496 C   0  0  0  0  0  4           0  0  0
   -4.5162   -0.1330    1.7989 C   0  0  0  0  0  4           0  0  0
   -2.9008   -0.1092   -0.4477 C   0  0  0  0  0  4           0  0  0
    8.7214    0.3365   -1.6224 C   0  0  0  0  0  4           0  0  0
    8.2777    0.2188    0.7666 C   0  0  0  0  0  4           0  0  0
   10.0866    0.2114   -1.3690 C   0  0  0  0  0  4           0  0  0
    9.6450    0.0946    1.0087 C   0  0  0  0  0  4           0  0  0
   10.5478    0.0901   -0.0566 C   0  0  0  0  0  4           0  0  0
    6.3764    0.4789   -0.8104 C   0  0  0  0  0  4           0  0  0
   -7.2695   -0.2207    1.4702 C   0  0  0  0  0  4           0  0  0
   -4.0855   -0.1946   -2.9574 C   0  0  0  0  0  4           0  0  0
  1 10  1  0     0  0
  1 29  1  0     0  0
  2 11  1  0     0  0
  2 30  1  0     0  0
  3 28  2  0     0  0
  4 12  2  0     0  0
  4 16  1  0     0  0
  5 12  1  0     0  0
  5 17  2  0     0  0
  6 13  1  0     0  0
  6 14  2  0     0  0
  7 13  2  0     0  0
  7 15  1  0     0  0
  8 14  1  0     0  0
  8 18  1  0     0  0
  9 12  1  0     0  0
  9 28  1  0     0  0
 10 11  1  0     0  0
 10 21  2  0     0  0
 11 22  2  0     0  0
 14 19  1  0     0  0
 15 19  2  0     0  0
 15 21  1  0     0  0
 16 18  2  0     0  0
 17 18  1  0     0  0
 19 22  1  0     0  0
 20 23  2  0     0  0
 20 24  1  0     0  0
 20 28  1  0     0  0
 23 25  1  0     0  0
 24 26  2  0     0  0
 25 27  2  0     0  0
 26 27  1  0     0  0
M  END
> <standard_type>
pIC50

> <# Confs.>
25

> <canonical_smiles>
O=C(NC1=NC=C(NC2=NC=NC3=C2C=C(OC)C(OC)=C3)C=N1)C4=CC=CC=C4

> <standard_relation>
=

> <Publication_ID>
nan

> <predicted_activity_value>
7.721246399047171

> <actual_activity_value>
7.6020599913279625

> <Compound>
11

> <standard_units>
nM

> hash
7075920698246586756

$$$$
10
XXILIB    08252103493D 0   0.00000     0.00000

 30 33  0     1  0            999 V2000
   -5.8824   -2.5618    0.7797 O   0  0  0  0  0  2           0  0  0
   -4.3471   -2.6484   -1.3211 O   0  0  0  0  0  2           0  0  0
    6.0078   -1.0523   -1.8334 O   0  0  0  0  0  2           0  0  0
    3.5294   -0.5646   -0.9836 N   0  0  0  0  0  3           0  0  0
    3.4641    0.6340    1.0807 N   0  0  0  0  0  3           0  0  0
   -0.5352    0.5943    2.2426 N   0  0  0  0  0  3           0  0  0
   -2.6269   -0.0298    3.2333 N   0  0  0  0  0  3           0  0  0
    0.0000    0.0000   -0.0000 N   0  0  0  0  0  3           0  0  0
    5.5367    0.0854    0.1266 N   0  0  0  0  0  3           0  0  0
   -4.6752   -1.9324    0.8899 C   0  0  0  0  0  4           0  0  0
   -3.8513   -1.9776   -0.2394 C   0  0  0  0  0  4           0  0  0
    4.1270    0.0448    0.0637 C   0  0  0  0  0  4           0  0  0
   -1.4193    0.5526    3.2484 C   0  0  0  0  0  4           0  0  0
   -0.9059    0.0000    1.0820 C   0  0  0  0  0  4           0  0  0
   -2.9863   -0.6400    2.0963 C   0  0  0  0  0  4           0  0  0
    2.1767   -0.5693   -0.9860 C   0  0  0  0  0  4           0  0  0
    2.1142    0.5950    1.0188 C   0  0  0  0  0  4           0  0  0
    1.3912   -0.0000   -0.0000 C   0  0  0  0  0  4           0  0  0
   -2.1515   -0.6678    0.9630 C   0  0  0  0  0  4           0  0  0
    7.8286   -0.3087   -0.5646 C   0  0  0  0  0  4           0  0  0
   -4.2282   -1.2692    2.0401 C   0  0  0  0  0  4           0  0  0
   -2.6009   -1.3503   -0.1967 C   0  0  0  0  0  4           0  0  0
    8.7214   -1.2368   -1.1026 C   0  0  0  0  0  4           0  0  0
    8.2777    0.7734    0.1938 C   0  0  0  0  0  4           0  0  0
   10.0866   -1.0799   -0.8676 C   0  0  0  0  0  4           0  0  0
    9.6450    0.9209    0.4224 C   0  0  0  0  0  4           0  0  0
   10.5478   -0.0040   -0.1064 C   0  0  0  0  0  4           0  0  0
    6.3764   -0.4623   -0.8200 C   0  0  0  0  0  4           0  0  0
   -6.7093   -2.5061    1.9392 C   0  0  0  0  0  4           0  0  0
   -3.4941   -2.6840   -2.4622 C   0  0  0  0  0  4           0  0  0
  1 10  1  0     0  0
  1 29  1  0     0  0
  2 11  1  0     0  0
  2 30  1  0     0  0
  3 28  2  0     0  0
  4 12  2  0     0  0
  4 16  1  0     0  0
  5 12  1  0     0  0
  5 17  2  0     0  0
  6 13  1  0     0  0
  6 14  2  0     0  0
  7 13  2  0     0  0
  7 15  1  0     0  0
  8 14  1  0     0  0
  8 18  1  0     0  0
  9 12  1  0     0  0
  9 28  1  0     0  0
 10 11  1  0     0  0
 10 21  2  0     0  0
 11 22  2  0     0  0
 14 19  1  0     0  0
 15 19  2  0     0  0
 15 21  1  0     0  0
 16 18  2  0     0  0
 17 18  1  0     0  0
 19 22  1  0     0  0
 20 23  2  0     0  0
 20 24  1  0     0  0
 20 28  1  0     0  0
 23 25  1  0     0  0
 24 26  2  0     0  0
 25 27  2  0     0  0
 26 27  1  0     0  0
M  END
> <standard_type>
pIC50

> <# Confs.>
25

> <canonical_smiles>
O=C(NC1=NC=C(NC2=NC=NC3=C2C=C(OC)C(OC)=C3)C=N1)C4=CC=CC=C4

> <standard_relation>
=

> <Publication_ID>
nan

> <predicted_activity_value>
7.721246399047171

> <actual_activity_value>
7.6020599913279625

> <Compound>
11

> <standard_units>
nM

> hash
7075920698246586756

$$$$
10
XXILIB    08252103493D 0   0.00000     0.00000

 30 33  0     1  0            999 V2000
   -5.8824   -2.5618    0.7797 O   0  0  0  0  0  2           0  0  0
   -4.3471   -2.6484   -1.3211 O   0  0  0  0  0  2           0  0  0
    6.0078   -0.0054    2.1139 O   0  0  0  0  0  2           0  0  0
    3.5294   -0.0028    1.1341 N   0  0  0  0  0  3           0  0  0
    3.4641   -0.0087   -1.2529 N   0  0  0  0  0  3           0  0  0
   -0.5352    0.5943    2.2426 N   0  0  0  0  0  3           0  0  0
   -2.6269   -0.0298    3.2333 N   0  0  0  0  0  3           0  0  0
    0.0000    0.0000   -0.0000 N   0  0  0  0  0  3           0  0  0
    5.5367   -0.0106   -0.1523 N   0  0  0  0  0  3           0  0  0
   -4.6752   -1.9324    0.8899 C   0  0  0  0  0  4           0  0  0
   -3.8513   -1.9776   -0.2394 C   0  0  0  0  0  4           0  0  0
    4.1270   -0.0070   -0.0776 C   0  0  0  0  0  4           0  0  0
   -1.4193    0.5526    3.2484 C   0  0  0  0  0  4           0  0  0
   -0.9059    0.0000    1.0820 C   0  0  0  0  0  4           0  0  0
   -2.9863   -0.6400    2.0963 C   0  0  0  0  0  4           0  0  0
    2.1767   -0.0000    1.1386 C   0  0  0  0  0  4           0  0  0
    2.1142   -0.0059   -1.1798 C   0  0  0  0  0  4           0  0  0
    1.3912    0.0000    0.0000 C   0  0  0  0  0  4           0  0  0
   -2.1515   -0.6678    0.9630 C   0  0  0  0  0  4           0  0  0
    7.8286   -0.0150    0.6433 C   0  0  0  0  0  4           0  0  0
   -4.2282   -1.2692    2.0401 C   0  0  0  0  0  4           0  0  0
   -2.6009   -1.3503   -0.1967 C   0  0  0  0  0  4           0  0  0
    8.7214    0.5198    1.5733 C   0  0  0  0  0  4           0  0  0
    8.2777   -0.5728   -0.5545 C   0  0  0  0  0  4           0  0  0
   10.0866    0.5014    1.2913 C   0  0  0  0  0  4           0  0  0
    9.6450   -0.5863   -0.8263 C   0  0  0  0  0  4           0  0  0
   10.5478   -0.0497    0.0941 C   0  0  0  0  0  4           0  0  0
    6.3764   -0.0096    0.9413 C   0  0  0  0  0  4           0  0  0
   -6.7093   -2.5061    1.9392 C   0  0  0  0  0  4           0  0  0
   -5.1012   -1.8591   -2.2372 C   0  0  0  0  0  4           0  0  0
  1 10  1  0     0  0
  1 29  1  0     0  0
  2 11  1  0     0  0
  2 30  1  0     0  0
  3 28  2  0     0  0
  4 12  2  0     0  0
  4 16  1  0     0  0
  5 12  1  0     0  0
  5 17  2  0     0  0
  6 13  1  0     0  0
  6 14  2  0     0  0
  7 13  2  0     0  0
  7 15  1  0     0  0
  8 14  1  0     0  0
  8 18  1  0     0  0
  9 12  1  0     0  0
  9 28  1  0     0  0
 10 11  1  0     0  0
 10 21  2  0     0  0
 11 22  2  0     0  0
 14 19  1  0     0  0
 15 19  2  0     0  0
 15 21  1  0     0  0
 16 18  2  0     0  0
 17 18  1  0     0  0
 19 22  1  0     0  0
 20 23  2  0     0  0
 20 24  1  0     0  0
 20 28  1  0     0  0
 23 25  1  0     0  0
 24 26  2  0     0  0
 25 27  2  0     0  0
 26 27  1  0     0  0
M  END
> <standard_type>
pIC50

> <# Confs.>
25

> <canonical_smiles>
O=C(NC1=NC=C(NC2=NC=NC3=C2C=C(OC)C(OC)=C3)C=N1)C4=CC=CC=C4

> <standard_relation>
=

> <Publication_ID>
nan

> <predicted_activity_value>
7.721246399047171

> <actual_activity_value>
7.6020599913279625

> <Compound>
11

> <standard_units>
nM

> hash
7075920698246586756

$$$$
10
XXILIB    08252103493D 0   0.00000     0.00000

 30 33  0     1  0            999 V2000
   -6.4526   -0.2137    0.3023 O   0  0  0  0  0  2           0  0  0
   -4.9329   -0.2030   -1.8115 O   0  0  0  0  0  2           0  0  0
    6.0078   -1.0523   -1.8334 O   0  0  0  0  0  2           0  0  0
    3.5294   -0.5646   -0.9836 N   0  0  0  0  0  3           0  0  0
    3.4641    0.6340    1.0807 N   0  0  0  0  0  3           0  0  0
   -0.4131    0.0000    2.3449 N   0  0  0  0  0  3           0  0  0
   -2.6446   -0.0566    3.2185 N   0  0  0  0  0  3           0  0  0
    0.0000    0.0000   -0.0000 N   0  0  0  0  0  3           0  0  0
    5.5367    0.0854    0.1266 N   0  0  0  0  0  3           0  0  0
   -5.1065   -0.1668    0.5288 C   0  0  0  0  0  4           0  0  0
   -4.2904   -0.1593   -0.6070 C   0  0  0  0  0  4           0  0  0
    4.1270    0.0448    0.0637 C   0  0  0  0  0  4           0  0  0
   -1.3098   -0.0200    3.3400 C   0  0  0  0  0  4           0  0  0
   -0.9059    0.0000    1.0820 C   0  0  0  0  0  4           0  0  0
   -3.1347   -0.0823    1.9721 C   0  0  0  0  0  4           0  0  0
    2.1767   -0.5693   -0.9860 C   0  0  0  0  0  4           0  0  0
    2.1142    0.5950    1.0188 C   0  0  0  0  0  4           0  0  0
    1.3912   -0.0000   -0.0000 C   0  0  0  0  0  4           0  0  0
   -2.3016   -0.0626    0.8374 C   0  0  0  0  0  4           0  0  0
    7.8286   -0.3087   -0.5646 C   0  0  0  0  0  4           0  0  0
   -4.5162   -0.1330    1.7989 C   0  0  0  0  0  4           0  0  0
   -2.9008   -0.1092   -0.4477 C   0  0  0  0  0  4           0  0  0
    8.7214   -1.2368   -1.1026 C   0  0  0  0  0  4           0  0  0
    8.2777    0.7734    0.1938 C   0  0  0  0  0  4           0  0  0
   10.0866   -1.0799   -0.8676 C   0  0  0  0  0  4           0  0  0
    9.6450    0.9209    0.4224 C   0  0  0  0  0  4           0  0  0
   10.5478   -0.0040   -0.1064 C   0  0  0  0  0  4           0  0  0
    6.3764   -0.4623   -0.8200 C   0  0  0  0  0  4           0  0  0
   -7.2695   -0.2207    1.4702 C   0  0  0  0  0  4           0  0  0
   -5.2646    1.0638   -2.3740 C   0  0  0  0  0  4           0  0  0
  1 10  1  0     0  0
  1 29  1  0     0  0
  2 11  1  0     0  0
  2 30  1  0     0  0
  3 28  2  0     0  0
  4 12  2  0     0  0
  4 16  1  0     0  0
  5 12  1  0     0  0
  5 17  2  0     0  0
  6 13  1  0     0  0
  6 14  2  0     0  0
  7 13  2  0     0  0
  7 15  1  0     0  0
  8 14  1  0     0  0
  8 18  1  0     0  0
  9 12  1  0     0  0
  9 28  1  0     0  0
 10 11  1  0     0  0
 10 21  2  0     0  0
 11 22  2  0     0  0
 14 19  1  0     0  0
 15 19  2  0     0  0
 15 21  1  0     0  0
 16 18  2  0     0  0
 17 18  1  0     0  0
 19 22  1  0     0  0
 20 23  2  0     0  0
 20 24  1  0     0  0
 20 28  1  0     0  0
 23 25  1  0     0  0
 24 26  2  0     0  0
 25 27  2  0     0  0
 26 27  1  0     0  0
M  END
> <standard_type>
pIC50

> <# Confs.>
25

> <canonical_smiles>
O=C(NC1=NC=C(NC2=NC=NC3=C2C=C(OC)C(OC)=C3)C=N1)C4=CC=CC=C4

> <standard_relation>
=

> <Publication_ID>
nan

> <predicted_activity_value>
7.721246399047171

> <actual_activity_value>
7.6020599913279625

> <Compound>
11

> <standard_units>
nM

> hash
7075920698246586756

$$$$
10
XXILIB    08252103493D 0   0.00000     0.00000

 30 33  0     1  0            999 V2000
   -4.4884   -4.2234    1.9469 O   0  0  0  0  0  2           0  0  0
   -2.9023   -4.3841   -0.1114 O   0  0  0  0  0  2           0  0  0
    6.0078   -1.0523   -1.8334 O   0  0  0  0  0  2           0  0  0
    3.5294   -0.5646   -0.9836 N   0  0  0  0  0  3           0  0  0
    3.4641    0.6340    1.0807 N   0  0  0  0  0  3           0  0  0
   -0.8687    1.0294    1.9633 N   0  0  0  0  0  3           0  0  0
   -2.6218    0.0050    3.2376 N   0  0  0  0  0  3           0  0  0
    0.0000    0.0000    0.0000 N   0  0  0  0  0  3           0  0  0
    5.5367    0.0854    0.1266 N   0  0  0  0  0  3           0  0  0
   -3.6248   -3.1802    1.7694 C   0  0  0  0  0  4           0  0  0
   -2.7741   -3.2660    0.6626 C   0  0  0  0  0  4           0  0  0
    4.1270    0.0448    0.0637 C   0  0  0  0  0  4           0  0  0
   -1.7336    0.9772    2.9852 C   0  0  0  0  0  4           0  0  0
   -0.9059    0.0000    1.0820 C   0  0  0  0  0  4           0  0  0
   -2.6439   -1.0262    2.3829 C   0  0  0  0  0  4           0  0  0
    2.1767   -0.5693   -0.9860 C   0  0  0  0  0  4           0  0  0
    2.1142    0.5950    1.0188 C   0  0  0  0  0  4           0  0  0
    1.3912   -0.0000   -0.0000 C   0  0  0  0  0  4           0  0  0
   -1.7896   -1.0941    1.2661 C   0  0  0  0  0  4           0  0  0
    7.8286   -0.3087   -0.5646 C   0  0  0  0  0  4           0  0  0
   -3.5431   -2.0653    2.6136 C   0  0  0  0  0  4           0  0  0
   -1.8654   -2.2297    0.4191 C   0  0  0  0  0  4           0  0  0
    8.7214   -1.2368   -1.1026 C   0  0  0  0  0  4           0  0  0
    8.2777    0.7734    0.1938 C   0  0  0  0  0  4           0  0  0
   10.0866   -1.0799   -0.8676 C   0  0  0  0  0  4           0  0  0
    9.6450    0.9209    0.4224 C   0  0  0  0  0  4           0  0  0
   10.5478   -0.0040   -0.1064 C   0  0  0  0  0  4           0  0  0
    6.3764   -0.4623   -0.8200 C   0  0  0  0  0  4           0  0  0
   -5.3479   -4.1201    3.0790 C   0  0  0  0  0  4           0  0  0
   -2.0276   -4.4543   -1.2344 C   0  0  0  0  0  4           0  0  0
  1 10  1  0     0  0
  1 29  1  0     0  0
  2 11  1  0     0  0
  2 30  1  0     0  0
  3 28  2  0     0  0
  4 12  2  0     0  0
  4 16  1  0     0  0
  5 12  1  0     0  0
  5 17  2  0     0  0
  6 13  1  0     0  0
  6 14  2  0     0  0
  7 13  2  0     0  0
  7 15  1  0     0  0
  8 14  1  0     0  0
  8 18  1  0     0  0
  9 12  1  0     0  0
  9 28  1  0     0  0
 10 11  1  0     0  0
 10 21  2  0     0  0
 11 22  2  0     0  0
 14 19  1  0     0  0
 15 19  2  0     0  0
 15 21  1  0     0  0
 16 18  2  0     0  0
 17 18  1  0     0  0
 19 22  1  0     0  0
 20 23  2  0     0  0
 20 24  1  0     0  0
 20 28  1  0     0  0
 23 25  1  0     0  0
 24 26  2  0     0  0
 25 27  2  0     0  0
 26 27  1  0     0  0
M  END
> <standard_type>
pIC50

> <# Confs.>
25

> <canonical_smiles>
O=C(NC1=NC=C(NC2=NC=NC3=C2C=C(OC)C(OC)=C3)C=N1)C4=CC=CC=C4

> <standard_relation>
=

> <Publication_ID>
nan

> <predicted_activity_value>
7.721246399047171

> <actual_activity_value>
7.6020599913279625

> <Compound>
11

> <standard_units>
nM

> hash
7075920698246586756

$$$$
10
XXILIB    08252103493D 0   0.00000     0.00000

 30 33  0     1  0            999 V2000
   -6.0463    2.1917    0.6426 O   0  0  0  0  0  2           0  0  0
   -4.5027    2.2968   -1.4514 O   0  0  0  0  0  2           0  0  0
    6.0078    0.0054   -2.1139 O   0  0  0  0  0  2           0  0  0
    3.5294    0.0028   -1.1341 N   0  0  0  0  0  3           0  0  0
    3.4641    0.0087    1.2529 N   0  0  0  0  0  3           0  0  0
   -0.5352   -0.5943    2.2426 N   0  0  0  0  0  3           0  0  0
   -2.6702   -0.0682    3.1970 N   0  0  0  0  0  3           0  0  0
    0.0000    0.0000    0.0000 N   0  0  0  0  0  3           0  0  0
    5.5367    0.0106    0.1523 N   0  0  0  0  0  3           0  0  0
   -4.8031    1.6434    0.7828 C   0  0  0  0  0  4           0  0  0
   -3.9735    1.7016   -0.3417 C   0  0  0  0  0  4           0  0  0
    4.1270    0.0070    0.0776 C   0  0  0  0  0  4           0  0  0
   -1.4346   -0.5872    3.2356 C   0  0  0  0  0  4           0  0  0
   -0.9059   -0.0000    1.0820 C   0  0  0  0  0  4           0  0  0
   -3.0494    0.4975    2.0435 C   0  0  0  0  0  4           0  0  0
    2.1767    0.0000   -1.1386 C   0  0  0  0  0  4           0  0  0
    2.1142    0.0059    1.1798 C   0  0  0  0  0  4           0  0  0
    1.3912    0.0000   -0.0000 C   0  0  0  0  0  4           0  0  0
   -2.1996    0.5594    0.9228 C   0  0  0  0  0  4           0  0  0
    7.8286    0.0150   -0.6433 C   0  0  0  0  0  4           0  0  0
   -4.3301    1.0388    1.9547 C   0  0  0  0  0  4           0  0  0
   -2.6846    1.1612   -0.2668 C   0  0  0  0  0  4           0  0  0
    8.2860   -0.5490    0.5486 C   0  0  0  0  0  4           0  0  0
    8.7137    0.5672   -1.5702 C   0  0  0  0  0  4           0  0  0
    9.6541   -0.5504    0.8173 C   0  0  0  0  0  4           0  0  0
   10.0797    0.5603   -1.2916 C   0  0  0  0  0  4           0  0  0
   10.5492    0.0035   -0.1001 C   0  0  0  0  0  4           0  0  0
    6.3764    0.0096   -0.9413 C   0  0  0  0  0  4           0  0  0
   -7.0595    1.3005    0.1841 C   0  0  0  0  0  4           0  0  0
   -4.2856    3.7016   -1.5543 C   0  0  0  0  0  4           0  0  0
  1 10  1  0     0  0
  1 29  1  0     0  0
  2 11  1  0     0  0
  2 30  1  0     0  0
  3 28  2  0     0  0
  4 12  2  0     0  0
  4 16  1  0     0  0
  5 12  1  0     0  0
  5 17  2  0     0  0
  6 13  1  0     0  0
  6 14  2  0     0  0
  7 13  2  0     0  0
  7 15  1  0     0  0
  8 14  1  0     0  0
  8 18  1  0     0  0
  9 12  1  0     0  0
  9 28  1  0     0  0
 10 11  1  0     0  0
 10 21  2  0     0  0
 11 22  2  0     0  0
 14 19  1  0     0  0
 15 19  2  0     0  0
 15 21  1  0     0  0
 16 18  2  0     0  0
 17 18  1  0     0  0
 19 22  1  0     0  0
 20 23  2  0     0  0
 20 24  1  0     0  0
 20 28  1  0     0  0
 23 25  1  0     0  0
 24 26  2  0     0  0
 25 27  2  0     0  0
 26 27  1  0     0  0
M  END
> <standard_type>
pIC50

> <# Confs.>
25

> <canonical_smiles>
O=C(NC1=NC=C(NC2=NC=NC3=C2C=C(OC)C(OC)=C3)C=N1)C4=CC=CC=C4

> <standard_relation>
=

> <Publication_ID>
nan

> <predicted_activity_value>
7.721246399047171

> <actual_activity_value>
7.6020599913279625

> <Compound>
11

> <standard_units>
nM

> hash
7075920698246586756

$$$$
10
XXILIB    08252103493D 0   0.00000     0.00000

 30 33  0     1  0            999 V2000
   -6.0463    2.1917    0.6426 O   0  0  0  0  0  2           0  0  0
   -4.5027    2.2968   -1.4514 O   0  0  0  0  0  2           0  0  0
    6.0078   -0.0054    2.1139 O   0  0  0  0  0  2           0  0  0
    3.5294   -0.0028    1.1341 N   0  0  0  0  0  3           0  0  0
    3.4641   -0.0087   -1.2529 N   0  0  0  0  0  3           0  0  0
   -0.5352   -0.5943    2.2426 N   0  0  0  0  0  3           0  0  0
   -2.6702   -0.0682    3.1970 N   0  0  0  0  0  3           0  0  0
    0.0000    0.0000    0.0000 N   0  0  0  0  0  3           0  0  0
    5.5367   -0.0106   -0.1523 N   0  0  0  0  0  3           0  0  0
   -4.8031    1.6434    0.7828 C   0  0  0  0  0  4           0  0  0
   -3.9735    1.7016   -0.3417 C   0  0  0  0  0  4           0  0  0
    4.1270   -0.0070   -0.0776 C   0  0  0  0  0  4           0  0  0
   -1.4346   -0.5872    3.2356 C   0  0  0  0  0  4           0  0  0
   -0.9059   -0.0000    1.0820 C   0  0  0  0  0  4           0  0  0
   -3.0494    0.4975    2.0435 C   0  0  0  0  0  4           0  0  0
    2.1767   -0.0000    1.1386 C   0  0  0  0  0  4           0  0  0
    2.1142   -0.0059   -1.1798 C   0  0  0  0  0  4           0  0  0
    1.3912    0.0000    0.0000 C   0  0  0  0  0  4           0  0  0
   -2.1996    0.5594    0.9228 C   0  0  0  0  0  4           0  0  0
    7.8286   -0.0150    0.6433 C   0  0  0  0  0  4           0  0  0
   -4.3301    1.0388    1.9547 C   0  0  0  0  0  4           0  0  0
   -2.6846    1.1612   -0.2668 C   0  0  0  0  0  4           0  0  0
    8.7214    0.5198    1.5733 C   0  0  0  0  0  4           0  0  0
    8.2777   -0.5728   -0.5545 C   0  0  0  0  0  4           0  0  0
   10.0866    0.5014    1.2913 C   0  0  0  0  0  4           0  0  0
    9.6450   -0.5863   -0.8263 C   0  0  0  0  0  4           0  0  0
   10.5478   -0.0497    0.0941 C   0  0  0  0  0  4           0  0  0
    6.3764   -0.0096    0.9413 C   0  0  0  0  0  4           0  0  0
   -7.0595    1.3005    0.1841 C   0  0  0  0  0  4           0  0  0
   -4.2856    3.7016   -1.5543 C   0  0  0  0  0  4           0  0  0
  1 10  1  0     0  0
  1 29  1  0     0  0
  2 11  1  0     0  0
  2 30  1  0     0  0
  3 28  2  0     0  0
  4 12  2  0     0  0
  4 16  1  0     0  0
  5 12  1  0     0  0
  5 17  2  0     0  0
  6 13  1  0     0  0
  6 14  2  0     0  0
  7 13  2  0     0  0
  7 15  1  0     0  0
  8 14  1  0     0  0
  8 18  1  0     0  0
  9 12  1  0     0  0
  9 28  1  0     0  0
 10 11  1  0     0  0
 10 21  2  0     0  0
 11 22  2  0     0  0
 14 19  1  0     0  0
 15 19  2  0     0  0
 15 21  1  0     0  0
 16 18  2  0     0  0
 17 18  1  0     0  0
 19 22  1  0     0  0
 20 23  2  0     0  0
 20 24  1  0     0  0
 20 28  1  0     0  0
 23 25  1  0     0  0
 24 26  2  0     0  0
 25 27  2  0     0  0
 26 27  1  0     0  0
M  END
> <standard_type>
pIC50

> <# Confs.>
25

> <canonical_smiles>
O=C(NC1=NC=C(NC2=NC=NC3=C2C=C(OC)C(OC)=C3)C=N1)C4=CC=CC=C4

> <standard_relation>
=

> <Publication_ID>
nan

> <predicted_activity_value>
7.721246399047171

> <actual_activity_value>
7.6020599913279625

> <Compound>
11

> <standard_units>
nM

> hash
7075920698246586756

$$$$
10
XXILIB    08252103493D 0   0.00000     0.00000

 30 33  0     1  0            999 V2000
   -4.7722    4.0097    1.7093 O   0  0  0  0  0  2           0  0  0
   -3.1718    4.1812   -0.3371 O   0  0  0  0  0  2           0  0  0
    6.0078   -1.0523   -1.8334 O   0  0  0  0  0  2           0  0  0
    3.5294   -0.5646   -0.9836 N   0  0  0  0  0  3           0  0  0
    3.4641    0.6340    1.0807 N   0  0  0  0  0  3           0  0  0
   -0.8687   -1.0294    1.9633 N   0  0  0  0  0  3           0  0  0
   -2.6969   -0.0615    3.1747 N   0  0  0  0  0  3           0  0  0
    0.0000    0.0000    0.0000 N   0  0  0  0  0  3           0  0  0
    5.5367    0.0854    0.1266 N   0  0  0  0  0  3           0  0  0
   -3.8464    3.0133    1.5838 C   0  0  0  0  0  4           0  0  0
   -2.9856    3.1067    0.4854 C   0  0  0  0  0  4           0  0  0
    4.1270    0.0448    0.0637 C   0  0  0  0  0  4           0  0  0
   -1.7601   -0.9971    2.9631 C   0  0  0  0  0  4           0  0  0
   -0.9059    0.0000    1.0820 C   0  0  0  0  0  4           0  0  0
   -2.7532    0.9439    2.2914 C   0  0  0  0  0  4           0  0  0
    2.1767   -0.5693   -0.9860 C   0  0  0  0  0  4           0  0  0
    2.1142    0.5950    1.0188 C   0  0  0  0  0  4           0  0  0
    1.3912   -0.0000   -0.0000 C   0  0  0  0  0  4           0  0  0
   -1.8727    1.0315    1.1965 C   0  0  0  0  0  4           0  0  0
    7.8286   -0.3087   -0.5646 C   0  0  0  0  0  4           0  0  0
   -3.7197    1.9323    2.4658 C   0  0  0  0  0  4           0  0  0
   -2.0104    2.1205    0.2977 C   0  0  0  0  0  4           0  0  0
    8.7214   -1.2368   -1.1026 C   0  0  0  0  0  4           0  0  0
    8.2777    0.7734    0.1938 C   0  0  0  0  0  4           0  0  0
   10.0866   -1.0799   -0.8676 C   0  0  0  0  0  4           0  0  0
    9.6450    0.9209    0.4224 C   0  0  0  0  0  4           0  0  0
   10.5478   -0.0040   -0.1064 C   0  0  0  0  0  4           0  0  0
    6.3764   -0.4623   -0.8200 C   0  0  0  0  0  4           0  0  0
   -5.6410    3.8994    2.8336 C   0  0  0  0  0  4           0  0  0
   -2.2860    4.2597   -1.4507 C   0  0  0  0  0  4           0  0  0
  1 10  1  0     0  0
  1 29  1  0     0  0
  2 11  1  0     0  0
  2 30  1  0     0  0
  3 28  2  0     0  0
  4 12  2  0     0  0
  4 16  1  0     0  0
  5 12  1  0     0  0
  5 17  2  0     0  0
  6 13  1  0     0  0
  6 14  2  0     0  0
  7 13  2  0     0  0
  7 15  1  0     0  0
  8 14  1  0     0  0
  8 18  1  0     0  0
  9 12  1  0     0  0
  9 28  1  0     0  0
 10 11  1  0     0  0
 10 21  2  0     0  0
 11 22  2  0     0  0
 14 19  1  0     0  0
 15 19  2  0     0  0
 15 21  1  0     0  0
 16 18  2  0     0  0
 17 18  1  0     0  0
 19 22  1  0     0  0
 20 23  2  0     0  0
 20 24  1  0     0  0
 20 28  1  0     0  0
 23 25  1  0     0  0
 24 26  2  0     0  0
 25 27  2  0     0  0
 26 27  1  0     0  0
M  END
> <standard_type>
pIC50

> <# Confs.>
25

> <canonical_smiles>
O=C(NC1=NC=C(NC2=NC=NC3=C2C=C(OC)C(OC)=C3)C=N1)C4=CC=CC=C4

> <standard_relation>
=

> <Publication_ID>
nan

> <predicted_activity_value>
7.721246399047171

> <actual_activity_value>
7.6020599913279625

> <Compound>
11

> <standard_units>
nM

> hash
7075920698246586756

$$$$
10
XXILIB    08252103493D 0   0.00000     0.00000

 30 33  0     1  0            999 V2000
   -6.0463    2.1917    0.6426 O   0  0  0  0  0  2           0  0  0
   -4.5027    2.2968   -1.4514 O   0  0  0  0  0  2           0  0  0
    6.0078    0.0054   -2.1139 O   0  0  0  0  0  2           0  0  0
    3.5294    0.0028   -1.1341 N   0  0  0  0  0  3           0  0  0
    3.4641    0.0087    1.2529 N   0  0  0  0  0  3           0  0  0
   -0.5352   -0.5943    2.2426 N   0  0  0  0  0  3           0  0  0
   -2.6702   -0.0682    3.1970 N   0  0  0  0  0  3           0  0  0
    0.0000    0.0000    0.0000 N   0  0  0  0  0  3           0  0  0
    5.5367    0.0106    0.1523 N   0  0  0  0  0  3           0  0  0
   -4.8031    1.6434    0.7828 C   0  0  0  0  0  4           0  0  0
   -3.9735    1.7016   -0.3417 C   0  0  0  0  0  4           0  0  0
    4.1270    0.0070    0.0776 C   0  0  0  0  0  4           0  0  0
   -1.4346   -0.5872    3.2356 C   0  0  0  0  0  4           0  0  0
   -0.9059   -0.0000    1.0820 C   0  0  0  0  0  4           0  0  0
   -3.0494    0.4975    2.0435 C   0  0  0  0  0  4           0  0  0
    2.1767    0.0000   -1.1386 C   0  0  0  0  0  4           0  0  0
    2.1142    0.0059    1.1798 C   0  0  0  0  0  4           0  0  0
    1.3912    0.0000   -0.0000 C   0  0  0  0  0  4           0  0  0
   -2.1996    0.5594    0.9228 C   0  0  0  0  0  4           0  0  0
    7.8286    0.0150   -0.6433 C   0  0  0  0  0  4           0  0  0
   -4.3301    1.0388    1.9547 C   0  0  0  0  0  4           0  0  0
   -2.6846    1.1612   -0.2668 C   0  0  0  0  0  4           0  0  0
    8.2860   -0.5490    0.5486 C   0  0  0  0  0  4           0  0  0
    8.7137    0.5672   -1.5702 C   0  0  0  0  0  4           0  0  0
    9.6541   -0.5504    0.8173 C   0  0  0  0  0  4           0  0  0
   10.0797    0.5603   -1.2916 C   0  0  0  0  0  4           0  0  0
   10.5492    0.0035   -0.1001 C   0  0  0  0  0  4           0  0  0
    6.3764    0.0096   -0.9413 C   0  0  0  0  0  4           0  0  0
   -6.1464    3.5738    0.9755 C   0  0  0  0  0  4           0  0  0
   -5.1938    1.4251   -2.3422 C   0  0  0  0  0  4           0  0  0
  1 10  1  0     0  0
  1 29  1  0     0  0
  2 11  1  0     0  0
  2 30  1  0     0  0
  3 28  2  0     0  0
  4 12  2  0     0  0
  4 16  1  0     0  0
  5 12  1  0     0  0
  5 17  2  0     0  0
  6 13  1  0     0  0
  6 14  2  0     0  0
  7 13  2  0     0  0
  7 15  1  0     0  0
  8 14  1  0     0  0
  8 18  1  0     0  0
  9 12  1  0     0  0
  9 28  1  0     0  0
 10 11  1  0     0  0
 10 21  2  0     0  0
 11 22  2  0     0  0
 14 19  1  0     0  0
 15 19  2  0     0  0
 15 21  1  0     0  0
 16 18  2  0     0  0
 17 18  1  0     0  0
 19 22  1  0     0  0
 20 23  2  0     0  0
 20 24  1  0     0  0
 20 28  1  0     0  0
 23 25  1  0     0  0
 24 26  2  0     0  0
 25 27  2  0     0  0
 26 27  1  0     0  0
M  END
> <standard_type>
pIC50

> <# Confs.>
25

> <canonical_smiles>
O=C(NC1=NC=C(NC2=NC=NC3=C2C=C(OC)C(OC)=C3)C=N1)C4=CC=CC=C4

> <standard_relation>
=

> <Publication_ID>
nan

> <predicted_activity_value>
7.721246399047171

> <actual_activity_value>
7.6020599913279625

> <Compound>
11

> <standard_units>
nM

> hash
7075920698246586756

$$$$
10
XXILIB    08252103493D 0   0.00000     0.00000

 30 33  0     1  0            999 V2000
   -6.0463    2.1917    0.6426 O   0  0  0  0  0  2           0  0  0
   -4.5027    2.2968   -1.4514 O   0  0  0  0  0  2           0  0  0
    6.0078   -0.0054    2.1139 O   0  0  0  0  0  2           0  0  0
    3.5294   -0.0028    1.1341 N   0  0  0  0  0  3           0  0  0
    3.4641   -0.0087   -1.2529 N   0  0  0  0  0  3           0  0  0
   -0.5352   -0.5943    2.2426 N   0  0  0  0  0  3           0  0  0
   -2.6702   -0.0682    3.1970 N   0  0  0  0  0  3           0  0  0
    0.0000    0.0000    0.0000 N   0  0  0  0  0  3           0  0  0
    5.5367   -0.0106   -0.1523 N   0  0  0  0  0  3           0  0  0
   -4.8031    1.6434    0.7828 C   0  0  0  0  0  4           0  0  0
   -3.9735    1.7016   -0.3417 C   0  0  0  0  0  4           0  0  0
    4.1270   -0.0070   -0.0776 C   0  0  0  0  0  4           0  0  0
   -1.4346   -0.5872    3.2356 C   0  0  0  0  0  4           0  0  0
   -0.9059   -0.0000    1.0820 C   0  0  0  0  0  4           0  0  0
   -3.0494    0.4975    2.0435 C   0  0  0  0  0  4           0  0  0
    2.1767   -0.0000    1.1386 C   0  0  0  0  0  4           0  0  0
    2.1142   -0.0059   -1.1798 C   0  0  0  0  0  4           0  0  0
    1.3912    0.0000    0.0000 C   0  0  0  0  0  4           0  0  0
   -2.1996    0.5594    0.9228 C   0  0  0  0  0  4           0  0  0
    7.8286   -0.0150    0.6433 C   0  0  0  0  0  4           0  0  0
   -4.3301    1.0388    1.9547 C   0  0  0  0  0  4           0  0  0
   -2.6846    1.1612   -0.2668 C   0  0  0  0  0  4           0  0  0
    8.7214    0.5198    1.5733 C   0  0  0  0  0  4           0  0  0
    8.2777   -0.5728   -0.5545 C   0  0  0  0  0  4           0  0  0
   10.0866    0.5014    1.2913 C   0  0  0  0  0  4           0  0  0
    9.6450   -0.5863   -0.8263 C   0  0  0  0  0  4           0  0  0
   10.5478   -0.0497    0.0941 C   0  0  0  0  0  4           0  0  0
    6.3764   -0.0096    0.9413 C   0  0  0  0  0  4           0  0  0
   -6.1464    3.5738    0.9755 C   0  0  0  0  0  4           0  0  0
   -5.1938    1.4251   -2.3422 C   0  0  0  0  0  4           0  0  0
  1 10  1  0     0  0
  1 29  1  0     0  0
  2 11  1  0     0  0
  2 30  1  0     0  0
  3 28  2  0     0  0
  4 12  2  0     0  0
  4 16  1  0     0  0
  5 12  1  0     0  0
  5 17  2  0     0  0
  6 13  1  0     0  0
  6 14  2  0     0  0
  7 13  2  0     0  0
  7 15  1  0     0  0
  8 14  1  0     0  0
  8 18  1  0     0  0
  9 12  1  0     0  0
  9 28  1  0     0  0
 10 11  1  0     0  0
 10 21  2  0     0  0
 11 22  2  0     0  0
 14 19  1  0     0  0
 15 19  2  0     0  0
 15 21  1  0     0  0
 16 18  2  0     0  0
 17 18  1  0     0  0
 19 22  1  0     0  0
 20 23  2  0     0  0
 20 24  1  0     0  0
 20 28  1  0     0  0
 23 25  1  0     0  0
 24 26  2  0     0  0
 25 27  2  0     0  0
 26 27  1  0     0  0
M  END
> <standard_type>
pIC50

> <# Confs.>
25

> <canonical_smiles>
O=C(NC1=NC=C(NC2=NC=NC3=C2C=C(OC)C(OC)=C3)C=N1)C4=CC=CC=C4

> <standard_relation>
=

> <Publication_ID>
nan

> <predicted_activity_value>
7.721246399047171

> <actual_activity_value>
7.6020599913279625

> <Compound>
11

> <standard_units>
nM

> hash
7075920698246586756

$$$$
10
XXILIB    08252103493D 0   0.00000     0.00000

 30 33  0     1  0            999 V2000
   -6.0463    2.1917    0.6426 O   0  0  0  0  0  2           0  0  0
   -4.5027    2.2968   -1.4514 O   0  0  0  0  0  2           0  0  0
    6.0078   -1.0523   -1.8334 O   0  0  0  0  0  2           0  0  0
    3.5294   -0.5646   -0.9836 N   0  0  0  0  0  3           0  0  0
    3.4641    0.6340    1.0807 N   0  0  0  0  0  3           0  0  0
   -0.5352   -0.5943    2.2426 N   0  0  0  0  0  3           0  0  0
   -2.6702   -0.0682    3.1970 N   0  0  0  0  0  3           0  0  0
    0.0000    0.0000    0.0000 N   0  0  0  0  0  3           0  0  0
    5.5367    0.0854    0.1266 N   0  0  0  0  0  3           0  0  0
   -4.8031    1.6434    0.7828 C   0  0  0  0  0  4           0  0  0
   -3.9735    1.7016   -0.3417 C   0  0  0  0  0  4           0  0  0
    4.1270    0.0448    0.0637 C   0  0  0  0  0  4           0  0  0
   -1.4346   -0.5872    3.2356 C   0  0  0  0  0  4           0  0  0
   -0.9059   -0.0000    1.0820 C   0  0  0  0  0  4           0  0  0
   -3.0494    0.4975    2.0435 C   0  0  0  0  0  4           0  0  0
    2.1767   -0.5693   -0.9860 C   0  0  0  0  0  4           0  0  0
    2.1142    0.5950    1.0188 C   0  0  0  0  0  4           0  0  0
    1.3912   -0.0000   -0.0000 C   0  0  0  0  0  4           0  0  0
   -2.1996    0.5594    0.9228 C   0  0  0  0  0  4           0  0  0
    7.8286   -0.3087   -0.5646 C   0  0  0  0  0  4           0  0  0
   -4.3301    1.0388    1.9547 C   0  0  0  0  0  4           0  0  0
   -2.6846    1.1612   -0.2668 C   0  0  0  0  0  4           0  0  0
    8.7214   -1.2368   -1.1026 C   0  0  0  0  0  4           0  0  0
    8.2777    0.7734    0.1938 C   0  0  0  0  0  4           0  0  0
   10.0866   -1.0799   -0.8676 C   0  0  0  0  0  4           0  0  0
    9.6450    0.9209    0.4224 C   0  0  0  0  0  4           0  0  0
   10.5478   -0.0040   -0.1064 C   0  0  0  0  0  4           0  0  0
    6.3764   -0.4623   -0.8200 C   0  0  0  0  0  4           0  0  0
   -6.1464    3.5738    0.9755 C   0  0  0  0  0  4           0  0  0
   -5.1938    1.4251   -2.3422 C   0  0  0  0  0  4           0  0  0
  1 10  1  0     0  0
  1 29  1  0     0  0
  2 11  1  0     0  0
  2 30  1  0     0  0
  3 28  2  0     0  0
  4 12  2  0     0  0
  4 16  1  0     0  0
  5 12  1  0     0  0
  5 17  2  0     0  0
  6 13  1  0     0  0
  6 14  2  0     0  0
  7 13  2  0     0  0
  7 15  1  0     0  0
  8 14  1  0     0  0
  8 18  1  0     0  0
  9 12  1  0     0  0
  9 28  1  0     0  0
 10 11  1  0     0  0
 10 21  2  0     0  0
 11 22  2  0     0  0
 14 19  1  0     0  0
 15 19  2  0     0  0
 15 21  1  0     0  0
 16 18  2  0     0  0
 17 18  1  0     0  0
 19 22  1  0     0  0
 20 23  2  0     0  0
 20 24  1  0     0  0
 20 28  1  0     0  0
 23 25  1  0     0  0
 24 26  2  0     0  0
 25 27  2  0     0  0
 26 27  1  0     0  0
M  END
> <standard_type>
pIC50

> <# Confs.>
25

> <canonical_smiles>
O=C(NC1=NC=C(NC2=NC=NC3=C2C=C(OC)C(OC)=C3)C=N1)C4=CC=CC=C4

> <standard_relation>
=

> <Publication_ID>
nan

> <predicted_activity_value>
7.721246399047171

> <actual_activity_value>
7.6020599913279625

> <Compound>
11

> <standard_units>
nM

> hash
7075920698246586756

$$$$
7
XXILIB    08252103493D 0   0.00000     0.00000

 40 43  0     1  0            999 V2000
   -2.2305   -4.0578   14.0028 F   0  0  0  0  0  1           0  0  0
   -1.0933   -6.3483   14.8371 F   0  0  0  0  0  1           0  0  0
    0.0000    0.0000    0.0000 O   0  0  0  0  0  2           0  0  0
   -3.1142   -4.1083    8.9637 O   0  0  0  0  0  2           0  0  0
   -0.9344   -3.1918   -3.7773 O   0  0  0  0  0  2           0  0  0
   -4.2433   -1.6602    8.4842 N   0  0  0  0  0  3           0  0  0
   -3.3681   -1.0634    7.6551 N   0  0  0  0  0  3           0  0  0
   -1.6325    0.7528    6.0809 N   0  0  0  0  0  3           0  0  0
    0.1673    1.2290    4.5696 N   0  0  0  0  0  3           0  0  0
   -3.6175   -0.3492    5.3512 N   0  0  0  0  0  3           0  0  0
   -2.8796   -3.6709   11.2352 N   0  0  0  0  0  3           0  0  0
    1.8506   -3.0081   -2.4965 N   0  0  1  0  0  3           0  0  0
   -1.9785   -5.0164   13.1001 C   0  0  0  0  0  4           0  0  0
   -1.3923   -6.1998   13.5391 C   0  0  0  0  0  4           0  0  0
   -0.5871    0.0000    1.2340 C   0  0  0  0  0  4           0  0  0
   -0.4234    1.2419    5.7731 C   0  0  0  0  0  4           0  0  0
   -4.0547   -0.9054    6.5118 C   0  0  0  0  0  4           0  0  0
   -2.3414    0.1944    5.0683 C   0  0  0  0  0  4           0  0  0
   -0.5172    0.6552    3.5720 C   0  0  0  0  0  4           0  0  0
   -5.4645   -1.8871    7.9250 C   0  0  0  0  0  4           0  0  0
   -2.2915   -4.8424   11.7492 C   0  0  0  0  0  4           0  0  0
   -1.8010    0.0982    3.7605 C   0  0  0  0  0  4           0  0  0
   -1.1111   -7.2292   12.6487 C   0  0  0  0  0  4           0  0  0
    0.0643    0.6062    2.3086 C   0  0  0  0  0  4           0  0  0
   -1.8493   -0.5501    1.3960 C   0  0  0  0  0  4           0  0  0
   -5.3762   -1.4099    6.6401 C   0  0  0  0  0  4           0  0  0
   -2.0069   -5.8795   10.8513 C   0  0  0  0  0  4           0  0  0
   -2.4483   -0.5077    2.6526 C   0  0  0  0  0  4           0  0  0
   -1.4199   -7.0668   11.3001 C   0  0  0  0  0  4           0  0  0
   -3.2408   -3.3631    9.9330 C   0  0  0  0  0  4           0  0  0
    1.4279   -0.0000    0.0000 C   0  0  0  0  0  4           0  0  0
   -0.0715   -2.0824   -3.9940 C   0  0  0  0  0  4           0  0  0
   -3.8438   -1.9826    9.8357 C   0  0  0  0  0  4           0  0  0
    1.4017   -2.4877   -3.7906 C   0  0  0  0  0  4           0  0  0
    3.2789   -3.3436   -2.4777 C   0  0  0  0  0  4           0  0  0
    1.4553   -2.1872   -1.3490 C   0  0  0  0  0  4           0  0  0
    3.8393   -4.4012   -3.4490 C   0  0  1  0  0  4           0  0  0
    1.9196   -0.7208   -1.2485 C   0  0  0  0  0  4           0  0  0
    5.3454   -4.6057   -3.2715 C   0  0  0  0  0  4           0  0  0
    3.1027   -5.7378   -3.3341 C   0  0  0  0  0  4           0  0  0
  1 13  1  0     0  0
  2 14  1  0     0  0
  3 15  1  0     0  0
  3 31  1  0     0  0
  4 30  2  0     0  0
  5 32  1  0     0  0
  6  7  1  0     0  0
  6 20  1  0     0  0
  6 33  1  0     0  0
  7 17  2  0     0  0
  8 16  1  0     0  0
  8 18  2  0     0  0
  9 16  2  0     0  0
  9 19  1  0     0  0
 10 17  1  0     0  0
 10 18  1  0     0  0
 11 21  1  0     0  0
 11 30  1  0     0  0
 12 34  1  0     0  0
 12 35  1  0     0  0
 12 36  1  0     0  0
 13 14  1  0     0  0
 13 21  2  0     0  0
 14 23  2  0     0  0
 15 24  2  0     0  0
 15 25  1  0     0  0
 17 26  1  0     0  0
 18 22  1  0     0  0
 19 22  2  0     0  0
 19 24  1  0     0  0
 20 26  2  0     0  0
 21 27  1  0     0  0
 22 28  1  0     0  0
 23 29  1  0     0  0
 25 28  2  0     0  0
 27 29  2  0     0  0
 30 33  1  0     0  0
 31 38  1  0     0  0
 32 34  1  0     0  0
 35 37  1  0     0  0
 36 38  1  0     0  0
 37 39  1  0     0  0
 37 40  1  0     0  0
M  END
> <standard_type>
pIC50

> <# Confs.>
25

> <canonical_smiles>
FC1=C(NC(CN2C=CC(NC3=NC=NC4=C3C=CC(OCCCN(CCO)CC(C)C)=C4)=N2)=O)C=CC=C1F

> <standard_relation>
=

> <Publication_ID>
nan

> <predicted_activity_value>
7.853871964321762

> <actual_activity_value>
8.045757490560675

> <Compound>
8

> <standard_units>
nM

> hash
5485682240152081559

$$$$
7
XXILIB    08252103493D 0   0.00000     0.00000

 40 43  0     1  0            999 V2000
   -4.4780    5.4948   12.9335 F   0  0  0  0  0  1           0  0  0
   -3.4260    7.8397   13.7273 F   0  0  0  0  0  1           0  0  0
    0.0000    0.0000    0.0000 O   0  0  0  0  0  2           0  0  0
   -1.3088    2.9539    9.8227 O   0  0  0  0  0  2           0  0  0
   -0.9344    1.6753   -4.6528 O   0  0  0  0  0  2           0  0  0
   -2.6923    0.6685    9.2221 N   0  0  0  0  0  3           0  0  0
   -2.8718    0.7461    7.8912 N   0  0  0  0  0  3           0  0  0
   -3.7632    0.6095    5.0671 N   0  0  0  0  0  3           0  0  0
   -3.6577    1.2166    2.7497 N   0  0  0  0  0  3           0  0  0
   -2.0339   -0.6633    6.1046 N   0  0  0  0  0  3           0  0  0
   -3.0251    3.7640   11.1660 N   0  0  0  0  0  3           0  0  0
    1.8506    0.6580   -3.8534 N   0  0  1  0  0  3           0  0  0
   -3.2592    5.8353   12.4908 C   0  0  0  0  0  4           0  0  0
   -2.7200    7.0487   12.9074 C   0  0  0  0  0  4           0  0  0
   -0.5871    0.0000    1.2340 C   0  0  0  0  0  4           0  0  0
   -4.2364    1.1960    3.9589 C   0  0  0  0  0  4           0  0  0
   -2.1769   -0.2953    7.4052 C   0  0  0  0  0  4           0  0  0
   -2.5791   -0.0424    4.9552 C   0  0  0  0  0  4           0  0  0
   -2.4757    0.5970    2.6402 C   0  0  0  0  0  4           0  0  0
   -1.9169   -0.3811    9.6129 C   0  0  0  0  0  4           0  0  0
   -2.5393    5.0008   11.6313 C   0  0  0  0  0  4           0  0  0
   -1.8633   -0.0584    3.7308 C   0  0  0  0  0  4           0  0  0
   -1.4595    7.4520   12.4829 C   0  0  0  0  0  4           0  0  0
   -1.8319    0.6062    1.4064 C   0  0  0  0  0  4           0  0  0
    0.0304   -0.6517    2.2903 C   0  0  0  0  0  4           0  0  0
   -1.5621   -1.0287    8.4549 C   0  0  0  0  0  4           0  0  0
   -1.2692    5.4078   11.2023 C   0  0  0  0  0  4           0  0  0
   -0.6004   -0.6738    3.5319 C   0  0  0  0  0  4           0  0  0
   -0.7329    6.6275   11.6270 C   0  0  0  0  0  4           0  0  0
   -2.4274    2.8430   10.3200 C   0  0  0  0  0  4           0  0  0
    1.4279   -0.0000   -0.0000 C   0  0  0  0  0  4           0  0  0
   -0.0715    2.4177   -3.8004 C   0  0  0  0  0  4           0  0  0
   -3.3158    1.6450   10.0869 C   0  0  0  0  0  4           0  0  0
    1.4017    2.0389   -4.0497 C   0  0  0  0  0  4           0  0  0
    3.2789    0.4740   -4.1345 C   0  0  0  0  0  4           0  0  0
    1.4553    0.0746   -2.5687 C   0  0  0  0  0  4           0  0  0
    3.8393    0.7864   -5.5361 C   0  0  1  0  0  4           0  0  0
    1.9196    0.7208   -1.2485 C   0  0  0  0  0  4           0  0  0
    5.3454    0.5303   -5.6243 C   0  0  0  0  0  4           0  0  0
    3.1027    0.0185   -6.6361 C   0  0  0  0  0  4           0  0  0
  1 13  1  0     0  0
  2 14  1  0     0  0
  3 15  1  0     0  0
  3 31  1  0     0  0
  4 30  2  0     0  0
  5 32  1  0     0  0
  6  7  1  0     0  0
  6 20  1  0     0  0
  6 33  1  0     0  0
  7 17  2  0     0  0
  8 16  1  0     0  0
  8 18  2  0     0  0
  9 16  2  0     0  0
  9 19  1  0     0  0
 10 17  1  0     0  0
 10 18  1  0     0  0
 11 21  1  0     0  0
 11 30  1  0     0  0
 12 34  1  0     0  0
 12 35  1  0     0  0
 12 36  1  0     0  0
 13 14  1  0     0  0
 13 21  2  0     0  0
 14 23  2  0     0  0
 15 24  2  0     0  0
 15 25  1  0     0  0
 17 26  1  0     0  0
 18 22  1  0     0  0
 19 22  2  0     0  0
 19 24  1  0     0  0
 20 26  2  0     0  0
 21 27  1  0     0  0
 22 28  1  0     0  0
 23 29  1  0     0  0
 25 28  2  0     0  0
 27 29  2  0     0  0
 30 33  1  0     0  0
 31 38  1  0     0  0
 32 34  1  0     0  0
 35 37  1  0     0  0
 36 38  1  0     0  0
 37 39  1  0     0  0
 37 40  1  0     0  0
M  END
> <standard_type>
pIC50

> <# Confs.>
25

> <canonical_smiles>
FC1=C(NC(CN2C=CC(NC3=NC=NC4=C3C=CC(OCCCN(CCO)CC(C)C)=C4)=N2)=O)C=CC=C1F

> <standard_relation>
=

> <Publication_ID>
nan

> <predicted_activity_value>
7.853871964321762

> <actual_activity_value>
8.045757490560675

> <Compound>
8

> <standard_units>
nM

> hash
5485682240152081559

$$$$
7
XXILIB    08252103493D 0   0.00000     0.00000

 40 43  0     1  0            999 V2000
   -4.4780    5.4948   12.9335 F   0  0  0  0  0  1           0  0  0
   -3.4260    7.8397   13.7273 F   0  0  0  0  0  1           0  0  0
    0.0000    0.0000    0.0000 O   0  0  0  0  0  2           0  0  0
   -1.3088    2.9539    9.8227 O   0  0  0  0  0  2           0  0  0
    5.1880   -1.0866   -3.8362 O   0  0  0  0  0  2           0  0  0
   -2.6923    0.6685    9.2221 N   0  0  0  0  0  3           0  0  0
   -2.8718    0.7461    7.8912 N   0  0  0  0  0  3           0  0  0
   -3.7632    0.6095    5.0671 N   0  0  0  0  0  3           0  0  0
   -3.6577    1.2166    2.7497 N   0  0  0  0  0  3           0  0  0
   -2.0339   -0.6633    6.1046 N   0  0  0  0  0  3           0  0  0
   -3.0251    3.7640   11.1660 N   0  0  0  0  0  3           0  0  0
    4.0749    1.4537   -2.5179 N   0  0  1  0  0  3           0  0  0
   -3.2592    5.8353   12.4908 C   0  0  0  0  0  4           0  0  0
   -2.7200    7.0487   12.9074 C   0  0  0  0  0  4           0  0  0
   -0.5871    0.0000    1.2340 C   0  0  0  0  0  4           0  0  0
   -4.2364    1.1960    3.9589 C   0  0  0  0  0  4           0  0  0
   -2.1769   -0.2953    7.4052 C   0  0  0  0  0  4           0  0  0
   -2.5791   -0.0424    4.9552 C   0  0  0  0  0  4           0  0  0
   -2.4757    0.5970    2.6402 C   0  0  0  0  0  4           0  0  0
   -1.9169   -0.3811    9.6129 C   0  0  0  0  0  4           0  0  0
   -2.5393    5.0008   11.6313 C   0  0  0  0  0  4           0  0  0
   -1.8633   -0.0584    3.7308 C   0  0  0  0  0  4           0  0  0
   -1.4595    7.4520   12.4829 C   0  0  0  0  0  4           0  0  0
   -1.8319    0.6062    1.4064 C   0  0  0  0  0  4           0  0  0
    0.0304   -0.6517    2.2903 C   0  0  0  0  0  4           0  0  0
   -1.5621   -1.0287    8.4549 C   0  0  0  0  0  4           0  0  0
   -1.2692    5.4078   11.2023 C   0  0  0  0  0  4           0  0  0
   -0.6004   -0.6738    3.5319 C   0  0  0  0  0  4           0  0  0
   -0.7329    6.6275   11.6270 C   0  0  0  0  0  4           0  0  0
   -2.4274    2.8430   10.3200 C   0  0  0  0  0  4           0  0  0
    1.4279   -0.0000    0.0000 C   0  0  0  0  0  4           0  0  0
    3.8469   -0.6559   -4.0317 C   0  0  0  0  0  4           0  0  0
   -3.3158    1.6450   10.0869 C   0  0  0  0  0  4           0  0  0
    3.7238    0.8650   -3.8130 C   0  0  0  0  0  4           0  0  0
    3.8993    2.9100   -2.4837 C   0  0  0  0  0  4           0  0  0
    3.4548    0.7899   -1.3682 C   0  0  0  0  0  4           0  0  0
    4.6872    3.8087   -3.4572 C   0  0  1  0  0  4           0  0  0
    1.9196    0.7208   -1.2485 C   0  0  0  0  0  4           0  0  0
    4.3639    5.2916   -3.2620 C   0  0  0  0  0  4           0  0  0
    6.1969    3.5755   -3.3638 C   0  0  0  0  0  4           0  0  0
  1 13  1  0     0  0
  2 14  1  0     0  0
  3 15  1  0     0  0
  3 31  1  0     0  0
  4 30  2  0     0  0
  5 32  1  0     0  0
  6  7  1  0     0  0
  6 20  1  0     0  0
  6 33  1  0     0  0
  7 17  2  0     0  0
  8 16  1  0     0  0
  8 18  2  0     0  0
  9 16  2  0     0  0
  9 19  1  0     0  0
 10 17  1  0     0  0
 10 18  1  0     0  0
 11 21  1  0     0  0
 11 30  1  0     0  0
 12 34  1  0     0  0
 12 35  1  0     0  0
 12 36  1  0     0  0
 13 14  1  0     0  0
 13 21  2  0     0  0
 14 23  2  0     0  0
 15 24  2  0     0  0
 15 25  1  0     0  0
 17 26  1  0     0  0
 18 22  1  0     0  0
 19 22  2  0     0  0
 19 24  1  0     0  0
 20 26  2  0     0  0
 21 27  1  0     0  0
 22 28  1  0     0  0
 23 29  1  0     0  0
 25 28  2  0     0  0
 27 29  2  0     0  0
 30 33  1  0     0  0
 31 38  1  0     0  0
 32 34  1  0     0  0
 35 37  1  0     0  0
 36 38  1  0     0  0
 37 39  1  0     0  0
 37 40  1  0     0  0
M  END
> <standard_type>
pIC50

> <# Confs.>
25

> <canonical_smiles>
FC1=C(NC(CN2C=CC(NC3=NC=NC4=C3C=CC(OCCCN(CCO)CC(C)C)=C4)=N2)=O)C=CC=C1F

> <standard_relation>
=

> <Publication_ID>
nan

> <predicted_activity_value>
7.853871964321762

> <actual_activity_value>
8.045757490560675

> <Compound>
8

> <standard_units>
nM

> hash
5485682240152081559

$$$$
7
XXILIB    08252103493D 0   0.00000     0.00000

 40 43  0     1  0            999 V2000
   -2.2305   -4.0578   14.0028 F   0  0  0  0  0  1           0  0  0
   -1.0933   -6.3483   14.8371 F   0  0  0  0  0  1           0  0  0
    0.0000    0.0000    0.0000 O   0  0  0  0  0  2           0  0  0
   -3.1142   -4.1083    8.9637 O   0  0  0  0  0  2           0  0  0
    5.1880   -3.8656   -0.9770 O   0  0  0  0  0  2           0  0  0
   -4.2433   -1.6602    8.4842 N   0  0  0  0  0  3           0  0  0
   -3.3681   -1.0634    7.6551 N   0  0  0  0  0  3           0  0  0
   -1.6325    0.7528    6.0809 N   0  0  0  0  0  3           0  0  0
    0.1673    1.2290    4.5696 N   0  0  0  0  0  3           0  0  0
   -3.6175   -0.3492    5.3512 N   0  0  0  0  0  3           0  0  0
   -2.8796   -3.6709   11.2352 N   0  0  0  0  0  3           0  0  0
    4.0749   -1.4537   -2.5179 N   0  0  1  0  0  3           0  0  0
   -1.9785   -5.0164   13.1001 C   0  0  0  0  0  4           0  0  0
   -1.3923   -6.1998   13.5391 C   0  0  0  0  0  4           0  0  0
   -0.5871    0.0000    1.2340 C   0  0  0  0  0  4           0  0  0
   -0.4234    1.2419    5.7731 C   0  0  0  0  0  4           0  0  0
   -4.0547   -0.9054    6.5118 C   0  0  0  0  0  4           0  0  0
   -2.3414    0.1944    5.0683 C   0  0  0  0  0  4           0  0  0
   -0.5172    0.6552    3.5720 C   0  0  0  0  0  4           0  0  0
   -5.4645   -1.8871    7.9250 C   0  0  0  0  0  4           0  0  0
   -2.2915   -4.8424   11.7492 C   0  0  0  0  0  4           0  0  0
   -1.8010    0.0982    3.7605 C   0  0  0  0  0  4           0  0  0
   -1.1111   -7.2292   12.6487 C   0  0  0  0  0  4           0  0  0
    0.0643    0.6062    2.3086 C   0  0  0  0  0  4           0  0  0
   -1.8493   -0.5501    1.3960 C   0  0  0  0  0  4           0  0  0
   -5.3762   -1.4099    6.6401 C   0  0  0  0  0  4           0  0  0
   -2.0069   -5.8795   10.8513 C   0  0  0  0  0  4           0  0  0
   -2.4483   -0.5077    2.6526 C   0  0  0  0  0  4           0  0  0
   -1.4199   -7.0668   11.3001 C   0  0  0  0  0  4           0  0  0
   -3.2408   -3.3631    9.9330 C   0  0  0  0  0  4           0  0  0
    1.4279    0.0000    0.0000 C   0  0  0  0  0  4           0  0  0
    3.8469   -3.8195   -1.4479 C   0  0  0  0  0  4           0  0  0
   -3.8438   -1.9826    9.8357 C   0  0  0  0  0  4           0  0  0
    3.7238   -2.8696   -2.6556 C   0  0  0  0  0  4           0  0  0
    3.8993   -0.6959   -3.7620 C   0  0  0  0  0  4           0  0  0
    3.4548   -0.7899   -1.3682 C   0  0  0  0  0  4           0  0  0
    4.6872   -1.0897   -5.0270 C   0  0  1  0  0  4           0  0  0
    1.9196   -0.7208   -1.2485 C   0  0  0  0  0  4           0  0  0
    4.3639   -0.1792   -6.2136 C   0  0  0  0  0  4           0  0  0
    6.1969   -1.1254   -4.7784 C   0  0  0  0  0  4           0  0  0
  1 13  1  0     0  0
  2 14  1  0     0  0
  3 15  1  0     0  0
  3 31  1  0     0  0
  4 30  2  0     0  0
  5 32  1  0     0  0
  6  7  1  0     0  0
  6 20  1  0     0  0
  6 33  1  0     0  0
  7 17  2  0     0  0
  8 16  1  0     0  0
  8 18  2  0     0  0
  9 16  2  0     0  0
  9 19  1  0     0  0
 10 17  1  0     0  0
 10 18  1  0     0  0
 11 21  1  0     0  0
 11 30  1  0     0  0
 12 34  1  0     0  0
 12 35  1  0     0  0
 12 36  1  0     0  0
 13 14  1  0     0  0
 13 21  2  0     0  0
 14 23  2  0     0  0
 15 24  2  0     0  0
 15 25  1  0     0  0
 17 26  1  0     0  0
 18 22  1  0     0  0
 19 22  2  0     0  0
 19 24  1  0     0  0
 20 26  2  0     0  0
 21 27  1  0     0  0
 22 28  1  0     0  0
 23 29  1  0     0  0
 25 28  2  0     0  0
 27 29  2  0     0  0
 30 33  1  0     0  0
 31 38  1  0     0  0
 32 34  1  0     0  0
 35 37  1  0     0  0
 36 38  1  0     0  0
 37 39  1  0     0  0
 37 40  1  0     0  0
M  END
> <standard_type>
pIC50

> <# Confs.>
25

> <canonical_smiles>
FC1=C(NC(CN2C=CC(NC3=NC=NC4=C3C=CC(OCCCN(CCO)CC(C)C)=C4)=N2)=O)C=CC=C1F

> <standard_relation>
=

> <Publication_ID>
nan

> <predicted_activity_value>
7.853871964321762

> <actual_activity_value>
8.045757490560675

> <Compound>
8

> <standard_units>
nM

> hash
5485682240152081559

$$$$
7
XXILIB    08252103493D 0   0.00000     0.00000

 40 43  0     1  0            999 V2000
   -2.2305   -4.0578   14.0028 F   0  0  0  0  0  1           0  0  0
   -1.0933   -6.3483   14.8371 F   0  0  0  0  0  1           0  0  0
    0.0000    0.0000    0.0000 O   0  0  0  0  0  2           0  0  0
   -3.1142   -4.1083    8.9637 O   0  0  0  0  0  2           0  0  0
    3.7527    1.6001   -4.6979 O   0  0  0  0  0  2           0  0  0
   -4.2433   -1.6602    8.4842 N   0  0  0  0  0  3           0  0  0
   -3.3681   -1.0634    7.6551 N   0  0  0  0  0  3           0  0  0
   -1.6325    0.7528    6.0809 N   0  0  0  0  0  3           0  0  0
    0.1673    1.2290    4.5696 N   0  0  0  0  0  3           0  0  0
   -3.6175   -0.3492    5.3512 N   0  0  0  0  0  3           0  0  0
   -2.8796   -3.6709   11.2352 N   0  0  0  0  0  3           0  0  0
    1.8506   -0.6580   -3.8534 N   0  0  1  0  0  3           0  0  0
   -1.9785   -5.0164   13.1001 C   0  0  0  0  0  4           0  0  0
   -1.3923   -6.1998   13.5391 C   0  0  0  0  0  4           0  0  0
   -0.5871    0.0000    1.2340 C   0  0  0  0  0  4           0  0  0
   -0.4234    1.2419    5.7731 C   0  0  0  0  0  4           0  0  0
   -4.0547   -0.9054    6.5118 C   0  0  0  0  0  4           0  0  0
   -2.3414    0.1944    5.0683 C   0  0  0  0  0  4           0  0  0
   -0.5172    0.6552    3.5720 C   0  0  0  0  0  4           0  0  0
   -5.4645   -1.8871    7.9250 C   0  0  0  0  0  4           0  0  0
   -2.2915   -4.8424   11.7492 C   0  0  0  0  0  4           0  0  0
   -1.8010    0.0982    3.7605 C   0  0  0  0  0  4           0  0  0
   -1.1111   -7.2292   12.6487 C   0  0  0  0  0  4           0  0  0
    0.0643    0.6062    2.3086 C   0  0  0  0  0  4           0  0  0
   -1.8493   -0.5501    1.3960 C   0  0  0  0  0  4           0  0  0
   -5.3762   -1.4099    6.6401 C   0  0  0  0  0  4           0  0  0
   -2.0069   -5.8795   10.8513 C   0  0  0  0  0  4           0  0  0
   -2.4483   -0.5077    2.6526 C   0  0  0  0  0  4           0  0  0
   -1.4199   -7.0668   11.3001 C   0  0  0  0  0  4           0  0  0
   -3.2408   -3.3631    9.9330 C   0  0  0  0  0  4           0  0  0
    1.4279   -0.0000   -0.0000 C   0  0  0  0  0  4           0  0  0
    4.1643    0.5423   -3.8412 C   0  0  0  0  0  4           0  0  0
   -3.8438   -1.9826    9.8357 C   0  0  0  0  0  4           0  0  0
    3.2990   -0.7131   -4.0680 C   0  0  0  0  0  4           0  0  0
    1.1833   -1.9384   -4.1143 C   0  0  0  0  0  4           0  0  0
    1.4553   -0.0746   -2.5687 C   0  0  0  0  0  4           0  0  0
    1.2659   -2.5847   -5.5113 C   0  0  1  0  0  4           0  0  0
    1.9196   -0.7208   -1.2485 C   0  0  0  0  0  4           0  0  0
    0.5067   -3.9117   -5.5778 C   0  0  0  0  0  4           0  0  0
    0.7838   -1.6390   -6.6137 C   0  0  0  0  0  4           0  0  0
  1 13  1  0     0  0
  2 14  1  0     0  0
  3 15  1  0     0  0
  3 31  1  0     0  0
  4 30  2  0     0  0
  5 32  1  0     0  0
  6  7  1  0     0  0
  6 20  1  0     0  0
  6 33  1  0     0  0
  7 17  2  0     0  0
  8 16  1  0     0  0
  8 18  2  0     0  0
  9 16  2  0     0  0
  9 19  1  0     0  0
 10 17  1  0     0  0
 10 18  1  0     0  0
 11 21  1  0     0  0
 11 30  1  0     0  0
 12 34  1  0     0  0
 12 35  1  0     0  0
 12 36  1  0     0  0
 13 14  1  0     0  0
 13 21  2  0     0  0
 14 23  2  0     0  0
 15 24  2  0     0  0
 15 25  1  0     0  0
 17 26  1  0     0  0
 18 22  1  0     0  0
 19 22  2  0     0  0
 19 24  1  0     0  0
 20 26  2  0     0  0
 21 27  1  0     0  0
 22 28  1  0     0  0
 23 29  1  0     0  0
 25 28  2  0     0  0
 27 29  2  0     0  0
 30 33  1  0     0  0
 31 38  1  0     0  0
 32 34  1  0     0  0
 35 37  1  0     0  0
 36 38  1  0     0  0
 37 39  1  0     0  0
 37 40  1  0     0  0
M  END
> <standard_type>
pIC50

> <# Confs.>
25

> <canonical_smiles>
FC1=C(NC(CN2C=CC(NC3=NC=NC4=C3C=CC(OCCCN(CCO)CC(C)C)=C4)=N2)=O)C=CC=C1F

> <standard_relation>
=

> <Publication_ID>
nan

> <predicted_activity_value>
7.853871964321762

> <actual_activity_value>
8.045757490560675

> <Compound>
8

> <standard_units>
nM

> hash
5485682240152081559

$$$$
7
XXILIB    08252103493D 0   0.00000     0.00000

 40 43  0     1  0            999 V2000
   -4.4780    5.4948   12.9335 F   0  0  0  0  0  1           0  0  0
   -3.4260    7.8397   13.7273 F   0  0  0  0  0  1           0  0  0
    0.0000    0.0000    0.0000 O   0  0  0  0  0  2           0  0  0
   -1.3088    2.9539    9.8227 O   0  0  0  0  0  2           0  0  0
    3.7527    4.8686   -0.9632 O   0  0  0  0  0  2           0  0  0
   -2.6923    0.6685    9.2221 N   0  0  0  0  0  3           0  0  0
   -2.8718    0.7461    7.8912 N   0  0  0  0  0  3           0  0  0
   -3.7632    0.6095    5.0671 N   0  0  0  0  0  3           0  0  0
   -3.6577    1.2166    2.7497 N   0  0  0  0  0  3           0  0  0
   -2.0339   -0.6633    6.1046 N   0  0  0  0  0  3           0  0  0
   -3.0251    3.7640   11.1660 N   0  0  0  0  0  3           0  0  0
    1.8506    3.0081   -2.4965 N   0  0  1  0  0  3           0  0  0
   -3.2592    5.8353   12.4908 C   0  0  0  0  0  4           0  0  0
   -2.7200    7.0487   12.9074 C   0  0  0  0  0  4           0  0  0
   -0.5871    0.0000    1.2340 C   0  0  0  0  0  4           0  0  0
   -4.2364    1.1960    3.9589 C   0  0  0  0  0  4           0  0  0
   -2.1769   -0.2953    7.4052 C   0  0  0  0  0  4           0  0  0
   -2.5791   -0.0424    4.9552 C   0  0  0  0  0  4           0  0  0
   -2.4757    0.5970    2.6402 C   0  0  0  0  0  4           0  0  0
   -1.9169   -0.3811    9.6129 C   0  0  0  0  0  4           0  0  0
   -2.5393    5.0008   11.6313 C   0  0  0  0  0  4           0  0  0
   -1.8633   -0.0584    3.7308 C   0  0  0  0  0  4           0  0  0
   -1.4595    7.4520   12.4829 C   0  0  0  0  0  4           0  0  0
   -1.8319    0.6062    1.4064 C   0  0  0  0  0  4           0  0  0
    0.0304   -0.6517    2.2903 C   0  0  0  0  0  4           0  0  0
   -1.5621   -1.0287    8.4549 C   0  0  0  0  0  4           0  0  0
   -1.2692    5.4078   11.2023 C   0  0  0  0  0  4           0  0  0
   -0.6004   -0.6738    3.5319 C   0  0  0  0  0  4           0  0  0
   -0.7329    6.6275   11.6270 C   0  0  0  0  0  4           0  0  0
   -2.4274    2.8430   10.3200 C   0  0  0  0  0  4           0  0  0
    1.4279    0.0000   -0.0000 C   0  0  0  0  0  4           0  0  0
    4.1643    3.5977   -1.4509 C   0  0  0  0  0  4           0  0  0
   -3.3158    1.6450   10.0869 C   0  0  0  0  0  4           0  0  0
    3.2990    3.1664   -2.6515 C   0  0  0  0  0  4           0  0  0
    1.1833    2.5939   -3.7359 C   0  0  0  0  0  4           0  0  0
    1.4553    2.1872   -1.3490 C   0  0  0  0  0  4           0  0  0
    1.2659    3.4806   -4.9941 C   0  0  1  0  0  4           0  0  0
    1.9196    0.7208   -1.2485 C   0  0  0  0  0  4           0  0  0
    0.5067    2.8747   -6.1765 C   0  0  0  0  0  4           0  0  0
    0.7838    4.9082   -4.7263 C   0  0  0  0  0  4           0  0  0
  1 13  1  0     0  0
  2 14  1  0     0  0
  3 15  1  0     0  0
  3 31  1  0     0  0
  4 30  2  0     0  0
  5 32  1  0     0  0
  6  7  1  0     0  0
  6 20  1  0     0  0
  6 33  1  0     0  0
  7 17  2  0     0  0
  8 16  1  0     0  0
  8 18  2  0     0  0
  9 16  2  0     0  0
  9 19  1  0     0  0
 10 17  1  0     0  0
 10 18  1  0     0  0
 11 21  1  0     0  0
 11 30  1  0     0  0
 12 34  1  0     0  0
 12 35  1  0     0  0
 12 36  1  0     0  0
 13 14  1  0     0  0
 13 21  2  0     0  0
 14 23  2  0     0  0
 15 24  2  0     0  0
 15 25  1  0     0  0
 17 26  1  0     0  0
 18 22  1  0     0  0
 19 22  2  0     0  0
 19 24  1  0     0  0
 20 26  2  0     0  0
 21 27  1  0     0  0
 22 28  1  0     0  0
 23 29  1  0     0  0
 25 28  2  0     0  0
 27 29  2  0     0  0
 30 33  1  0     0  0
 31 38  1  0     0  0
 32 34  1  0     0  0
 35 37  1  0     0  0
 36 38  1  0     0  0
 37 39  1  0     0  0
 37 40  1  0     0  0
M  END
> <standard_type>
pIC50

> <# Confs.>
25

> <canonical_smiles>
FC1=C(NC(CN2C=CC(NC3=NC=NC4=C3C=CC(OCCCN(CCO)CC(C)C)=C4)=N2)=O)C=CC=C1F

> <standard_relation>
=

> <Publication_ID>
nan

> <predicted_activity_value>
7.853871964321762

> <actual_activity_value>
8.045757490560675

> <Compound>
8

> <standard_units>
nM

> hash
5485682240152081559

$$$$
7
XXILIB    08252103493D 0   0.00000     0.00000

 40 43  0     1  0            999 V2000
   -4.4780    5.4948   12.9335 F   0  0  0  0  0  1           0  0  0
   -3.4260    7.8397   13.7273 F   0  0  0  0  0  1           0  0  0
    0.0000    0.0000    0.0000 O   0  0  0  0  0  2           0  0  0
   -1.3088    2.9539    9.8227 O   0  0  0  0  0  2           0  0  0
    6.2495   -0.8264    0.1129 O   0  0  0  0  0  2           0  0  0
   -2.6923    0.6685    9.2221 N   0  0  0  0  0  3           0  0  0
   -2.8718    0.7461    7.8912 N   0  0  0  0  0  3           0  0  0
   -3.7632    0.6095    5.0671 N   0  0  0  0  0  3           0  0  0
   -3.6577    1.2166    2.7497 N   0  0  0  0  0  3           0  0  0
   -2.0339   -0.6633    6.1046 N   0  0  0  0  0  3           0  0  0
   -3.0251    3.7640   11.1660 N   0  0  0  0  0  3           0  0  0
    4.2453    1.4576   -0.3307 N   0  0  1  0  0  3           0  0  0
   -3.2592    5.8353   12.4908 C   0  0  0  0  0  4           0  0  0
   -2.7200    7.0487   12.9074 C   0  0  0  0  0  4           0  0  0
   -0.5871    0.0000    1.2340 C   0  0  0  0  0  4           0  0  0
   -4.2364    1.1960    3.9589 C   0  0  0  0  0  4           0  0  0
   -2.1769   -0.2953    7.4052 C   0  0  0  0  0  4           0  0  0
   -2.5791   -0.0424    4.9552 C   0  0  0  0  0  4           0  0  0
   -2.4757    0.5970    2.6402 C   0  0  0  0  0  4           0  0  0
   -1.9169   -0.3811    9.6129 C   0  0  0  0  0  4           0  0  0
   -2.5393    5.0008   11.6313 C   0  0  0  0  0  4           0  0  0
   -1.8633   -0.0584    3.7308 C   0  0  0  0  0  4           0  0  0
   -1.4595    7.4520   12.4829 C   0  0  0  0  0  4           0  0  0
   -1.8319    0.6062    1.4064 C   0  0  0  0  0  4           0  0  0
    0.0304   -0.6517    2.2903 C   0  0  0  0  0  4           0  0  0
   -1.5621   -1.0287    8.4549 C   0  0  0  0  0  4           0  0  0
   -1.2692    5.4078   11.2023 C   0  0  0  0  0  4           0  0  0
   -0.6004   -0.6738    3.5319 C   0  0  0  0  0  4           0  0  0
   -0.7329    6.6275   11.6270 C   0  0  0  0  0  4           0  0  0
   -2.4274    2.8430   10.3200 C   0  0  0  0  0  4           0  0  0
    1.4279   -0.0000   -0.0000 C   0  0  0  0  0  4           0  0  0
    6.4058    0.1281   -0.9296 C   0  0  0  0  0  4           0  0  0
   -3.3158    1.6450   10.0869 C   0  0  0  0  0  4           0  0  0
    5.6899    1.4465   -0.5756 C   0  0  0  0  0  4           0  0  0
    3.7288    2.7923   -0.0073 C   0  0  0  0  0  4           0  0  0
    3.4548    0.7899   -1.3682 C   0  0  0  0  0  4           0  0  0
    4.2586    3.5503    1.2259 C   0  0  1  0  0  4           0  0  0
    1.9196    0.7208   -1.2485 C   0  0  0  0  0  4           0  0  0
    3.5960    4.9200    1.3886 C   0  0  0  0  0  4           0  0  0
    4.1147    2.7325    2.5114 C   0  0  0  0  0  4           0  0  0
  1 13  1  0     0  0
  2 14  1  0     0  0
  3 15  1  0     0  0
  3 31  1  0     0  0
  4 30  2  0     0  0
  5 32  1  0     0  0
  6  7  1  0     0  0
  6 20  1  0     0  0
  6 33  1  0     0  0
  7 17  2  0     0  0
  8 16  1  0     0  0
  8 18  2  0     0  0
  9 16  2  0     0  0
  9 19  1  0     0  0
 10 17  1  0     0  0
 10 18  1  0     0  0
 11 21  1  0     0  0
 11 30  1  0     0  0
 12 34  1  0     0  0
 12 35  1  0     0  0
 12 36  1  0     0  0
 13 14  1  0     0  0
 13 21  2  0     0  0
 14 23  2  0     0  0
 15 24  2  0     0  0
 15 25  1  0     0  0
 17 26  1  0     0  0
 18 22  1  0     0  0
 19 22  2  0     0  0
 19 24  1  0     0  0
 20 26  2  0     0  0
 21 27  1  0     0  0
 22 28  1  0     0  0
 23 29  1  0     0  0
 25 28  2  0     0  0
 27 29  2  0     0  0
 30 33  1  0     0  0
 31 38  1  0     0  0
 32 34  1  0     0  0
 35 37  1  0     0  0
 36 38  1  0     0  0
 37 39  1  0     0  0
 37 40  1  0     0  0
M  END
> <standard_type>
pIC50

> <# Confs.>
25

> <canonical_smiles>
FC1=C(NC(CN2C=CC(NC3=NC=NC4=C3C=CC(OCCCN(CCO)CC(C)C)=C4)=N2)=O)C=CC=C1F

> <standard_relation>
=

> <Publication_ID>
nan

> <predicted_activity_value>
7.853871964321762

> <actual_activity_value>
8.045757490560675

> <Compound>
8

> <standard_units>
nM

> hash
5485682240152081559

$$$$
7
XXILIB    08252103493D 0   0.00000     0.00000

 40 43  0     1  0            999 V2000
   -2.2305   -4.0578   14.0028 F   0  0  0  0  0  1           0  0  0
   -1.0933   -6.3483   14.8371 F   0  0  0  0  0  1           0  0  0
    0.0000    0.0000    0.0000 O   0  0  0  0  0  2           0  0  0
   -3.1142   -4.1083    8.9637 O   0  0  0  0  0  2           0  0  0
   -1.0038   -4.2423    0.1827 O   0  0  0  0  0  2           0  0  0
   -4.2433   -1.6602    8.4842 N   0  0  0  0  0  3           0  0  0
   -3.3681   -1.0634    7.6551 N   0  0  0  0  0  3           0  0  0
   -1.6325    0.7528    6.0809 N   0  0  0  0  0  3           0  0  0
    0.1673    1.2290    4.5696 N   0  0  0  0  0  3           0  0  0
   -3.6175   -0.3492    5.3512 N   0  0  0  0  0  3           0  0  0
   -2.8796   -3.6709   11.2352 N   0  0  0  0  0  3           0  0  0
    1.8239   -3.1496   -0.3074 N   0  0  1  0  0  3           0  0  0
   -1.9785   -5.0164   13.1001 C   0  0  0  0  0  4           0  0  0
   -1.3923   -6.1998   13.5391 C   0  0  0  0  0  4           0  0  0
   -0.5871    0.0000    1.2340 C   0  0  0  0  0  4           0  0  0
   -0.4234    1.2419    5.7731 C   0  0  0  0  0  4           0  0  0
   -4.0547   -0.9054    6.5118 C   0  0  0  0  0  4           0  0  0
   -2.3414    0.1944    5.0683 C   0  0  0  0  0  4           0  0  0
   -0.5172    0.6552    3.5720 C   0  0  0  0  0  4           0  0  0
   -5.4645   -1.8871    7.9250 C   0  0  0  0  0  4           0  0  0
   -2.2915   -4.8424   11.7492 C   0  0  0  0  0  4           0  0  0
   -1.8010    0.0982    3.7605 C   0  0  0  0  0  4           0  0  0
   -1.1111   -7.2292   12.6487 C   0  0  0  0  0  4           0  0  0
    0.0643    0.6062    2.3086 C   0  0  0  0  0  4           0  0  0
   -1.8493   -0.5501    1.3960 C   0  0  0  0  0  4           0  0  0
   -5.3762   -1.4099    6.6401 C   0  0  0  0  0  4           0  0  0
   -2.0069   -5.8795   10.8513 C   0  0  0  0  0  4           0  0  0
   -2.4483   -0.5077    2.6526 C   0  0  0  0  0  4           0  0  0
   -1.4199   -7.0668   11.3001 C   0  0  0  0  0  4           0  0  0
   -3.2408   -3.3631    9.9330 C   0  0  0  0  0  4           0  0  0
    1.4279    0.0000    0.0000 C   0  0  0  0  0  4           0  0  0
   -0.1747   -4.7267   -0.8663 C   0  0  0  0  0  4           0  0  0
   -3.8438   -1.9826    9.8357 C   0  0  0  0  0  4           0  0  0
    1.3139   -4.5045   -0.5335 C   0  0  0  0  0  4           0  0  0
    3.2589   -3.1207   -0.0027 C   0  0  0  0  0  4           0  0  0
    1.4553   -2.1872   -1.3490 C   0  0  0  0  0  4           0  0  0
    3.8046   -3.8676    1.2303 C   0  0  1  0  0  4           0  0  0
    1.9196   -0.7208   -1.2485 C   0  0  0  0  0  4           0  0  0
    5.3206   -3.7148    1.3720 C   0  0  0  0  0  4           0  0  0
    3.1027   -3.4397    2.5212 C   0  0  0  0  0  4           0  0  0
  1 13  1  0     0  0
  2 14  1  0     0  0
  3 15  1  0     0  0
  3 31  1  0     0  0
  4 30  2  0     0  0
  5 32  1  0     0  0
  6  7  1  0     0  0
  6 20  1  0     0  0
  6 33  1  0     0  0
  7 17  2  0     0  0
  8 16  1  0     0  0
  8 18  2  0     0  0
  9 16  2  0     0  0
  9 19  1  0     0  0
 10 17  1  0     0  0
 10 18  1  0     0  0
 11 21  1  0     0  0
 11 30  1  0     0  0
 12 34  1  0     0  0
 12 35  1  0     0  0
 12 36  1  0     0  0
 13 14  1  0     0  0
 13 21  2  0     0  0
 14 23  2  0     0  0
 15 24  2  0     0  0
 15 25  1  0     0  0
 17 26  1  0     0  0
 18 22  1  0     0  0
 19 22  2  0     0  0
 19 24  1  0     0  0
 20 26  2  0     0  0
 21 27  1  0     0  0
 22 28  1  0     0  0
 23 29  1  0     0  0
 25 28  2  0     0  0
 27 29  2  0     0  0
 30 33  1  0     0  0
 31 38  1  0     0  0
 32 34  1  0     0  0
 35 37  1  0     0  0
 36 38  1  0     0  0
 37 39  1  0     0  0
 37 40  1  0     0  0
M  END
> <standard_type>
pIC50

> <# Confs.>
25

> <canonical_smiles>
FC1=C(NC(CN2C=CC(NC3=NC=NC4=C3C=CC(OCCCN(CCO)CC(C)C)=C4)=N2)=O)C=CC=C1F

> <standard_relation>
=

> <Publication_ID>
nan

> <predicted_activity_value>
7.853871964321762

> <actual_activity_value>
8.045757490560675

> <Compound>
8

> <standard_units>
nM

> hash
5485682240152081559

$$$$
7
XXILIB    08252103493D 0   0.00000     0.00000

 40 43  0     1  0            999 V2000
   -6.2975    4.2853   12.9873 F   0  0  0  0  0  1           0  0  0
   -8.7339    4.1085   14.1135 F   0  0  0  0  0  1           0  0  0
    0.0000    0.0000    0.0000 O   0  0  0  0  0  2           0  0  0
   -5.2025    0.1477   10.1842 O   0  0  0  0  0  2           0  0  0
    5.1880   -1.0866   -3.8362 O   0  0  0  0  0  2           0  0  0
   -2.6923    0.6685    9.2221 N   0  0  0  0  0  3           0  0  0
   -2.8718    0.7461    7.8912 N   0  0  0  0  0  3           0  0  0
   -3.7632    0.6095    5.0671 N   0  0  0  0  0  3           0  0  0
   -3.6577    1.2166    2.7497 N   0  0  0  0  0  3           0  0  0
   -2.0339   -0.6633    6.1046 N   0  0  0  0  0  3           0  0  0
   -5.2897    2.1621   11.3420 N   0  0  0  0  0  3           0  0  0
    4.0749    1.4537   -2.5179 N   0  0  1  0  0  3           0  0  0
   -7.0329    3.1877   12.7596 C   0  0  0  0  0  4           0  0  0
   -8.2934    3.1039   13.3434 C   0  0  0  0  0  4           0  0  0
   -0.5871    0.0000    1.2340 C   0  0  0  0  0  4           0  0  0
   -4.2364    1.1960    3.9589 C   0  0  0  0  0  4           0  0  0
   -2.1769   -0.2953    7.4052 C   0  0  0  0  0  4           0  0  0
   -2.5791   -0.0424    4.9552 C   0  0  0  0  0  4           0  0  0
   -2.4757    0.5970    2.6402 C   0  0  0  0  0  4           0  0  0
   -1.9169   -0.3811    9.6129 C   0  0  0  0  0  4           0  0  0
   -6.5554    2.1468   11.9584 C   0  0  0  0  0  4           0  0  0
   -1.8633   -0.0584    3.7308 C   0  0  0  0  0  4           0  0  0
   -9.1009    1.9913   13.1397 C   0  0  0  0  0  4           0  0  0
   -1.8319    0.6062    1.4064 C   0  0  0  0  0  4           0  0  0
    0.0304   -0.6517    2.2903 C   0  0  0  0  0  4           0  0  0
   -1.5621   -1.0287    8.4549 C   0  0  0  0  0  4           0  0  0
   -7.3688    1.0246   11.7541 C   0  0  0  0  0  4           0  0  0
   -0.6004   -0.6738    3.5319 C   0  0  0  0  0  4           0  0  0
   -8.6353    0.9485   12.3421 C   0  0  0  0  0  4           0  0  0
   -4.6919    1.2109   10.5302 C   0  0  0  0  0  4           0  0  0
    1.4279   -0.0000    0.0000 C   0  0  0  0  0  4           0  0  0
    3.8469   -0.6559   -4.0317 C   0  0  0  0  0  4           0  0  0
   -3.3158    1.6450   10.0869 C   0  0  0  0  0  4           0  0  0
    3.7238    0.8650   -3.8130 C   0  0  0  0  0  4           0  0  0
    3.8993    2.9100   -2.4837 C   0  0  0  0  0  4           0  0  0
    3.4548    0.7899   -1.3682 C   0  0  0  0  0  4           0  0  0
    4.6872    3.8087   -3.4572 C   0  0  1  0  0  4           0  0  0
    1.9196    0.7208   -1.2485 C   0  0  0  0  0  4           0  0  0
    4.3639    5.2916   -3.2620 C   0  0  0  0  0  4           0  0  0
    6.1969    3.5755   -3.3638 C   0  0  0  0  0  4           0  0  0
  1 13  1  0     0  0
  2 14  1  0     0  0
  3 15  1  0     0  0
  3 31  1  0     0  0
  4 30  2  0     0  0
  5 32  1  0     0  0
  6  7  1  0     0  0
  6 20  1  0     0  0
  6 33  1  0     0  0
  7 17  2  0     0  0
  8 16  1  0     0  0
  8 18  2  0     0  0
  9 16  2  0     0  0
  9 19  1  0     0  0
 10 17  1  0     0  0
 10 18  1  0     0  0
 11 21  1  0     0  0
 11 30  1  0     0  0
 12 34  1  0     0  0
 12 35  1  0     0  0
 12 36  1  0     0  0
 13 14  1  0     0  0
 13 21  2  0     0  0
 14 23  2  0     0  0
 15 24  2  0     0  0
 15 25  1  0     0  0
 17 26  1  0     0  0
 18 22  1  0     0  0
 19 22  2  0     0  0
 19 24  1  0     0  0
 20 26  2  0     0  0
 21 27  1  0     0  0
 22 28  1  0     0  0
 23 29  1  0     0  0
 25 28  2  0     0  0
 27 29  2  0     0  0
 30 33  1  0     0  0
 31 38  1  0     0  0
 32 34  1  0     0  0
 35 37  1  0     0  0
 36 38  1  0     0  0
 37 39  1  0     0  0
 37 40  1  0     0  0
M  END
> <standard_type>
pIC50

> <# Confs.>
25

> <canonical_smiles>
FC1=C(NC(CN2C=CC(NC3=NC=NC4=C3C=CC(OCCCN(CCO)CC(C)C)=C4)=N2)=O)C=CC=C1F

> <standard_relation>
=

> <Publication_ID>
nan

> <predicted_activity_value>
7.853871964321762

> <actual_activity_value>
8.045757490560675

> <Compound>
8

> <standard_units>
nM

> hash
5485682240152081559

$$$$
7
XXILIB    08252103493D 0   0.00000     0.00000

 40 43  0     1  0            999 V2000
   -6.2975    4.2853   12.9873 F   0  0  0  0  0  1           0  0  0
   -8.7339    4.1085   14.1135 F   0  0  0  0  0  1           0  0  0
    0.0000    0.0000    0.0000 O   0  0  0  0  0  2           0  0  0
   -5.2025    0.1477   10.1842 O   0  0  0  0  0  2           0  0  0
   -0.9344    1.6753   -4.6528 O   0  0  0  0  0  2           0  0  0
   -2.6923    0.6685    9.2221 N   0  0  0  0  0  3           0  0  0
   -2.8718    0.7461    7.8912 N   0  0  0  0  0  3           0  0  0
   -3.7632    0.6095    5.0671 N   0  0  0  0  0  3           0  0  0
   -3.6577    1.2166    2.7497 N   0  0  0  0  0  3           0  0  0
   -2.0339   -0.6633    6.1046 N   0  0  0  0  0  3           0  0  0
   -5.2897    2.1621   11.3420 N   0  0  0  0  0  3           0  0  0
    1.8506    0.6580   -3.8534 N   0  0  1  0  0  3           0  0  0
   -7.0329    3.1877   12.7596 C   0  0  0  0  0  4           0  0  0
   -8.2934    3.1039   13.3434 C   0  0  0  0  0  4           0  0  0
   -0.5871    0.0000    1.2340 C   0  0  0  0  0  4           0  0  0
   -4.2364    1.1960    3.9589 C   0  0  0  0  0  4           0  0  0
   -2.1769   -0.2953    7.4052 C   0  0  0  0  0  4           0  0  0
   -2.5791   -0.0424    4.9552 C   0  0  0  0  0  4           0  0  0
   -2.4757    0.5970    2.6402 C   0  0  0  0  0  4           0  0  0
   -1.9169   -0.3811    9.6129 C   0  0  0  0  0  4           0  0  0
   -6.5554    2.1468   11.9584 C   0  0  0  0  0  4           0  0  0
   -1.8633   -0.0584    3.7308 C   0  0  0  0  0  4           0  0  0
   -9.1009    1.9913   13.1397 C   0  0  0  0  0  4           0  0  0
   -1.8319    0.6062    1.4064 C   0  0  0  0  0  4           0  0  0
    0.0304   -0.6517    2.2903 C   0  0  0  0  0  4           0  0  0
   -1.5621   -1.0287    8.4549 C   0  0  0  0  0  4           0  0  0
   -7.3688    1.0246   11.7541 C   0  0  0  0  0  4           0  0  0
   -0.6004   -0.6738    3.5319 C   0  0  0  0  0  4           0  0  0
   -8.6353    0.9485   12.3421 C   0  0  0  0  0  4           0  0  0
   -4.6919    1.2109   10.5302 C   0  0  0  0  0  4           0  0  0
    1.4279   -0.0000   -0.0000 C   0  0  0  0  0  4           0  0  0
   -0.0715    2.4177   -3.8004 C   0  0  0  0  0  4           0  0  0
   -3.3158    1.6450   10.0869 C   0  0  0  0  0  4           0  0  0
    1.4017    2.0389   -4.0497 C   0  0  0  0  0  4           0  0  0
    3.2789    0.4740   -4.1345 C   0  0  0  0  0  4           0  0  0
    1.4553    0.0746   -2.5687 C   0  0  0  0  0  4           0  0  0
    3.8393    0.7864   -5.5361 C   0  0  1  0  0  4           0  0  0
    1.9196    0.7208   -1.2485 C   0  0  0  0  0  4           0  0  0
    5.3454    0.5303   -5.6243 C   0  0  0  0  0  4           0  0  0
    3.1027    0.0185   -6.6361 C   0  0  0  0  0  4           0  0  0
  1 13  1  0     0  0
  2 14  1  0     0  0
  3 15  1  0     0  0
  3 31  1  0     0  0
  4 30  2  0     0  0
  5 32  1  0     0  0
  6  7  1  0     0  0
  6 20  1  0     0  0
  6 33  1  0     0  0
  7 17  2  0     0  0
  8 16  1  0     0  0
  8 18  2  0     0  0
  9 16  2  0     0  0
  9 19  1  0     0  0
 10 17  1  0     0  0
 10 18  1  0     0  0
 11 21  1  0     0  0
 11 30  1  0     0  0
 12 34  1  0     0  0
 12 35  1  0     0  0
 12 36  1  0     0  0
 13 14  1  0     0  0
 13 21  2  0     0  0
 14 23  2  0     0  0
 15 24  2  0     0  0
 15 25  1  0     0  0
 17 26  1  0     0  0
 18 22  1  0     0  0
 19 22  2  0     0  0
 19 24  1  0     0  0
 20 26  2  0     0  0
 21 27  1  0     0  0
 22 28  1  0     0  0
 23 29  1  0     0  0
 25 28  2  0     0  0
 27 29  2  0     0  0
 30 33  1  0     0  0
 31 38  1  0     0  0
 32 34  1  0     0  0
 35 37  1  0     0  0
 36 38  1  0     0  0
 37 39  1  0     0  0
 37 40  1  0     0  0
M  END
> <standard_type>
pIC50

> <# Confs.>
25

> <canonical_smiles>
FC1=C(NC(CN2C=CC(NC3=NC=NC4=C3C=CC(OCCCN(CCO)CC(C)C)=C4)=N2)=O)C=CC=C1F

> <standard_relation>
=

> <Publication_ID>
nan

> <predicted_activity_value>
7.853871964321762

> <actual_activity_value>
8.045757490560675

> <Compound>
8

> <standard_units>
nM

> hash
5485682240152081559

$$$$
7
XXILIB    08252103493D 0   0.00000     0.00000

 40 43  0     1  0            999 V2000
   -6.2975    4.2853   12.9873 F   0  0  0  0  0  1           0  0  0
   -8.7339    4.1085   14.1135 F   0  0  0  0  0  1           0  0  0
    0.0000    0.0000    0.0000 O   0  0  0  0  0  2           0  0  0
   -5.2025    0.1477   10.1842 O   0  0  0  0  0  2           0  0  0
    3.7527    4.8686   -0.9632 O   0  0  0  0  0  2           0  0  0
   -2.6923    0.6685    9.2221 N   0  0  0  0  0  3           0  0  0
   -2.8718    0.7461    7.8912 N   0  0  0  0  0  3           0  0  0
   -3.7632    0.6095    5.0671 N   0  0  0  0  0  3           0  0  0
   -3.6577    1.2166    2.7497 N   0  0  0  0  0  3           0  0  0
   -2.0339   -0.6633    6.1046 N   0  0  0  0  0  3           0  0  0
   -5.2897    2.1621   11.3420 N   0  0  0  0  0  3           0  0  0
    1.8506    3.0081   -2.4965 N   0  0  1  0  0  3           0  0  0
   -7.0329    3.1877   12.7596 C   0  0  0  0  0  4           0  0  0
   -8.2934    3.1039   13.3434 C   0  0  0  0  0  4           0  0  0
   -0.5871    0.0000    1.2340 C   0  0  0  0  0  4           0  0  0
   -4.2364    1.1960    3.9589 C   0  0  0  0  0  4           0  0  0
   -2.1769   -0.2953    7.4052 C   0  0  0  0  0  4           0  0  0
   -2.5791   -0.0424    4.9552 C   0  0  0  0  0  4           0  0  0
   -2.4757    0.5970    2.6402 C   0  0  0  0  0  4           0  0  0
   -1.9169   -0.3811    9.6129 C   0  0  0  0  0  4           0  0  0
   -6.5554    2.1468   11.9584 C   0  0  0  0  0  4           0  0  0
   -1.8633   -0.0584    3.7308 C   0  0  0  0  0  4           0  0  0
   -9.1009    1.9913   13.1397 C   0  0  0  0  0  4           0  0  0
   -1.8319    0.6062    1.4064 C   0  0  0  0  0  4           0  0  0
    0.0304   -0.6517    2.2903 C   0  0  0  0  0  4           0  0  0
   -1.5621   -1.0287    8.4549 C   0  0  0  0  0  4           0  0  0
   -7.3688    1.0246   11.7541 C   0  0  0  0  0  4           0  0  0
   -0.6004   -0.6738    3.5319 C   0  0  0  0  0  4           0  0  0
   -8.6353    0.9485   12.3421 C   0  0  0  0  0  4           0  0  0
   -4.6919    1.2109   10.5302 C   0  0  0  0  0  4           0  0  0
    1.4279    0.0000   -0.0000 C   0  0  0  0  0  4           0  0  0
    4.1643    3.5977   -1.4509 C   0  0  0  0  0  4           0  0  0
   -3.3158    1.6450   10.0869 C   0  0  0  0  0  4           0  0  0
    3.2990    3.1664   -2.6515 C   0  0  0  0  0  4           0  0  0
    1.1833    2.5939   -3.7359 C   0  0  0  0  0  4           0  0  0
    1.4553    2.1872   -1.3490 C   0  0  0  0  0  4           0  0  0
    1.2659    3.4806   -4.9941 C   0  0  1  0  0  4           0  0  0
    1.9196    0.7208   -1.2485 C   0  0  0  0  0  4           0  0  0
    0.5067    2.8747   -6.1765 C   0  0  0  0  0  4           0  0  0
    0.7838    4.9082   -4.7263 C   0  0  0  0  0  4           0  0  0
  1 13  1  0     0  0
  2 14  1  0     0  0
  3 15  1  0     0  0
  3 31  1  0     0  0
  4 30  2  0     0  0
  5 32  1  0     0  0
  6  7  1  0     0  0
  6 20  1  0     0  0
  6 33  1  0     0  0
  7 17  2  0     0  0
  8 16  1  0     0  0
  8 18  2  0     0  0
  9 16  2  0     0  0
  9 19  1  0     0  0
 10 17  1  0     0  0
 10 18  1  0     0  0
 11 21  1  0     0  0
 11 30  1  0     0  0
 12 34  1  0     0  0
 12 35  1  0     0  0
 12 36  1  0     0  0
 13 14  1  0     0  0
 13 21  2  0     0  0
 14 23  2  0     0  0
 15 24  2  0     0  0
 15 25  1  0     0  0
 17 26  1  0     0  0
 18 22  1  0     0  0
 19 22  2  0     0  0
 19 24  1  0     0  0
 20 26  2  0     0  0
 21 27  1  0     0  0
 22 28  1  0     0  0
 23 29  1  0     0  0
 25 28  2  0     0  0
 27 29  2  0     0  0
 30 33  1  0     0  0
 31 38  1  0     0  0
 32 34  1  0     0  0
 35 37  1  0     0  0
 36 38  1  0     0  0
 37 39  1  0     0  0
 37 40  1  0     0  0
M  END
> <standard_type>
pIC50

> <# Confs.>
25

> <canonical_smiles>
FC1=C(NC(CN2C=CC(NC3=NC=NC4=C3C=CC(OCCCN(CCO)CC(C)C)=C4)=N2)=O)C=CC=C1F

> <standard_relation>
=

> <Publication_ID>
nan

> <predicted_activity_value>
7.853871964321762

> <actual_activity_value>
8.045757490560675

> <Compound>
8

> <standard_units>
nM

> hash
5485682240152081559

$$$$
7
XXILIB    08252103493D 0   0.00000     0.00000

 40 43  0     1  0            999 V2000
   -4.4780    5.4948   12.9335 F   0  0  0  0  0  1           0  0  0
   -3.4260    7.8397   13.7273 F   0  0  0  0  0  1           0  0  0
    0.0000    0.0000    0.0000 O   0  0  0  0  0  2           0  0  0
   -1.3088    2.9539    9.8227 O   0  0  0  0  0  2           0  0  0
    3.8869   -1.8736   -4.9356 O   0  0  0  0  0  2           0  0  0
   -2.6923    0.6685    9.2221 N   0  0  0  0  0  3           0  0  0
   -2.8718    0.7461    7.8912 N   0  0  0  0  0  3           0  0  0
   -3.7632    0.6095    5.0671 N   0  0  0  0  0  3           0  0  0
   -3.6577    1.2166    2.7497 N   0  0  0  0  0  3           0  0  0
   -2.0339   -0.6633    6.1046 N   0  0  0  0  0  3           0  0  0
   -3.0251    3.7640   11.1660 N   0  0  0  0  0  3           0  0  0
    4.2453   -0.4424   -1.4276 N   0  0  1  0  0  3           0  0  0
   -3.2592    5.8353   12.4908 C   0  0  0  0  0  4           0  0  0
   -2.7200    7.0487   12.9074 C   0  0  0  0  0  4           0  0  0
   -0.5871    0.0000    1.2340 C   0  0  0  0  0  4           0  0  0
   -4.2364    1.1960    3.9589 C   0  0  0  0  0  4           0  0  0
   -2.1769   -0.2953    7.4052 C   0  0  0  0  0  4           0  0  0
   -2.5791   -0.0424    4.9552 C   0  0  0  0  0  4           0  0  0
   -2.4757    0.5970    2.6402 C   0  0  0  0  0  4           0  0  0
   -1.9169   -0.3811    9.6129 C   0  0  0  0  0  4           0  0  0
   -2.5393    5.0008   11.6313 C   0  0  0  0  0  4           0  0  0
   -1.8633   -0.0584    3.7308 C   0  0  0  0  0  4           0  0  0
   -1.4595    7.4520   12.4829 C   0  0  0  0  0  4           0  0  0
   -1.8319    0.6062    1.4064 C   0  0  0  0  0  4           0  0  0
    0.0304   -0.6517    2.2903 C   0  0  0  0  0  4           0  0  0
   -1.5621   -1.0287    8.4549 C   0  0  0  0  0  4           0  0  0
   -1.2692    5.4078   11.2023 C   0  0  0  0  0  4           0  0  0
   -0.6004   -0.6738    3.5319 C   0  0  0  0  0  4           0  0  0
   -0.7329    6.6275   11.6270 C   0  0  0  0  0  4           0  0  0
   -2.4274    2.8430   10.3200 C   0  0  0  0  0  4           0  0  0
    1.4279    0.0000   -0.0000 C   0  0  0  0  0  4           0  0  0
    4.2946   -0.8876   -3.9954 C   0  0  0  0  0  4           0  0  0
   -3.3158    1.6450   10.0869 C   0  0  0  0  0  4           0  0  0
    3.9193   -1.3112   -2.5616 C   0  0  0  0  0  4           0  0  0
    5.6844   -0.1899   -1.2941 C   0  0  0  0  0  4           0  0  0
    3.4548    0.7899   -1.3682 C   0  0  0  0  0  4           0  0  0
    6.6602   -1.3632   -1.0768 C   0  0  1  0  0  4           0  0  0
    1.9196    0.7208   -1.2485 C   0  0  0  0  0  4           0  0  0
    8.1115   -0.8918   -0.9625 C   0  0  0  0  0  4           0  0  0
    6.2787   -2.2133    0.1373 C   0  0  0  0  0  4           0  0  0
  1 13  1  0     0  0
  2 14  1  0     0  0
  3 15  1  0     0  0
  3 31  1  0     0  0
  4 30  2  0     0  0
  5 32  1  0     0  0
  6  7  1  0     0  0
  6 20  1  0     0  0
  6 33  1  0     0  0
  7 17  2  0     0  0
  8 16  1  0     0  0
  8 18  2  0     0  0
  9 16  2  0     0  0
  9 19  1  0     0  0
 10 17  1  0     0  0
 10 18  1  0     0  0
 11 21  1  0     0  0
 11 30  1  0     0  0
 12 34  1  0     0  0
 12 35  1  0     0  0
 12 36  1  0     0  0
 13 14  1  0     0  0
 13 21  2  0     0  0
 14 23  2  0     0  0
 15 24  2  0     0  0
 15 25  1  0     0  0
 17 26  1  0     0  0
 18 22  1  0     0  0
 19 22  2  0     0  0
 19 24  1  0     0  0
 20 26  2  0     0  0
 21 27  1  0     0  0
 22 28  1  0     0  0
 23 29  1  0     0  0
 25 28  2  0     0  0
 27 29  2  0     0  0
 30 33  1  0     0  0
 31 38  1  0     0  0
 32 34  1  0     0  0
 35 37  1  0     0  0
 36 38  1  0     0  0
 37 39  1  0     0  0
 37 40  1  0     0  0
M  END
> <standard_type>
pIC50

> <# Confs.>
25

> <canonical_smiles>
FC1=C(NC(CN2C=CC(NC3=NC=NC4=C3C=CC(OCCCN(CCO)CC(C)C)=C4)=N2)=O)C=CC=C1F

> <standard_relation>
=

> <Publication_ID>
nan

> <predicted_activity_value>
7.853871964321762

> <actual_activity_value>
8.045757490560675

> <Compound>
8

> <standard_units>
nM

> hash
5485682240152081559

$$$$
7
XXILIB    08252103493D 0   0.00000     0.00000

 40 43  0     1  0            999 V2000
   -6.2975    4.2853   12.9873 F   0  0  0  0  0  1           0  0  0
   -8.7339    4.1085   14.1135 F   0  0  0  0  0  1           0  0  0
    0.0000    0.0000    0.0000 O   0  0  0  0  0  2           0  0  0
   -5.2025    0.1477   10.1842 O   0  0  0  0  0  2           0  0  0
    6.2495   -0.8264    0.1129 O   0  0  0  0  0  2           0  0  0
   -2.6923    0.6685    9.2221 N   0  0  0  0  0  3           0  0  0
   -2.8718    0.7461    7.8912 N   0  0  0  0  0  3           0  0  0
   -3.7632    0.6095    5.0671 N   0  0  0  0  0  3           0  0  0
   -3.6577    1.2166    2.7497 N   0  0  0  0  0  3           0  0  0
   -2.0339   -0.6633    6.1046 N   0  0  0  0  0  3           0  0  0
   -5.2897    2.1621   11.3420 N   0  0  0  0  0  3           0  0  0
    4.2453    1.4576   -0.3307 N   0  0  1  0  0  3           0  0  0
   -7.0329    3.1877   12.7596 C   0  0  0  0  0  4           0  0  0
   -8.2934    3.1039   13.3434 C   0  0  0  0  0  4           0  0  0
   -0.5871    0.0000    1.2340 C   0  0  0  0  0  4           0  0  0
   -4.2364    1.1960    3.9589 C   0  0  0  0  0  4           0  0  0
   -2.1769   -0.2953    7.4052 C   0  0  0  0  0  4           0  0  0
   -2.5791   -0.0424    4.9552 C   0  0  0  0  0  4           0  0  0
   -2.4757    0.5970    2.6402 C   0  0  0  0  0  4           0  0  0
   -1.9169   -0.3811    9.6129 C   0  0  0  0  0  4           0  0  0
   -6.5554    2.1468   11.9584 C   0  0  0  0  0  4           0  0  0
   -1.8633   -0.0584    3.7308 C   0  0  0  0  0  4           0  0  0
   -9.1009    1.9913   13.1397 C   0  0  0  0  0  4           0  0  0
   -1.8319    0.6062    1.4064 C   0  0  0  0  0  4           0  0  0
    0.0304   -0.6517    2.2903 C   0  0  0  0  0  4           0  0  0
   -1.5621   -1.0287    8.4549 C   0  0  0  0  0  4           0  0  0
   -7.3688    1.0246   11.7541 C   0  0  0  0  0  4           0  0  0
   -0.6004   -0.6738    3.5319 C   0  0  0  0  0  4           0  0  0
   -8.6353    0.9485   12.3421 C   0  0  0  0  0  4           0  0  0
   -4.6919    1.2109   10.5302 C   0  0  0  0  0  4           0  0  0
    1.4279   -0.0000   -0.0000 C   0  0  0  0  0  4           0  0  0
    6.4058    0.1281   -0.9296 C   0  0  0  0  0  4           0  0  0
   -3.3158    1.6450   10.0869 C   0  0  0  0  0  4           0  0  0
    5.6899    1.4465   -0.5756 C   0  0  0  0  0  4           0  0  0
    3.7288    2.7923   -0.0073 C   0  0  0  0  0  4           0  0  0
    3.4548    0.7899   -1.3682 C   0  0  0  0  0  4           0  0  0
    4.2586    3.5503    1.2259 C   0  0  1  0  0  4           0  0  0
    1.9196    0.7208   -1.2485 C   0  0  0  0  0  4           0  0  0
    3.5960    4.9200    1.3886 C   0  0  0  0  0  4           0  0  0
    4.1147    2.7325    2.5114 C   0  0  0  0  0  4           0  0  0
  1 13  1  0     0  0
  2 14  1  0     0  0
  3 15  1  0     0  0
  3 31  1  0     0  0
  4 30  2  0     0  0
  5 32  1  0     0  0
  6  7  1  0     0  0
  6 20  1  0     0  0
  6 33  1  0     0  0
  7 17  2  0     0  0
  8 16  1  0     0  0
  8 18  2  0     0  0
  9 16  2  0     0  0
  9 19  1  0     0  0
 10 17  1  0     0  0
 10 18  1  0     0  0
 11 21  1  0     0  0
 11 30  1  0     0  0
 12 34  1  0     0  0
 12 35  1  0     0  0
 12 36  1  0     0  0
 13 14  1  0     0  0
 13 21  2  0     0  0
 14 23  2  0     0  0
 15 24  2  0     0  0
 15 25  1  0     0  0
 17 26  1  0     0  0
 18 22  1  0     0  0
 19 22  2  0     0  0
 19 24  1  0     0  0
 20 26  2  0     0  0
 21 27  1  0     0  0
 22 28  1  0     0  0
 23 29  1  0     0  0
 25 28  2  0     0  0
 27 29  2  0     0  0
 30 33  1  0     0  0
 31 38  1  0     0  0
 32 34  1  0     0  0
 35 37  1  0     0  0
 36 38  1  0     0  0
 37 39  1  0     0  0
 37 40  1  0     0  0
M  END
> <standard_type>
pIC50

> <# Confs.>
25

> <canonical_smiles>
FC1=C(NC(CN2C=CC(NC3=NC=NC4=C3C=CC(OCCCN(CCO)CC(C)C)=C4)=N2)=O)C=CC=C1F

> <standard_relation>
=

> <Publication_ID>
nan

> <predicted_activity_value>
7.853871964321762

> <actual_activity_value>
8.045757490560675

> <Compound>
8

> <standard_units>
nM

> hash
5485682240152081559

$$$$
7
XXILIB    08252103493D 0   0.00000     0.00000

 40 43  0     1  0            999 V2000
   -2.2305   -4.0578   14.0028 F   0  0  0  0  0  1           0  0  0
   -1.0933   -6.3483   14.8371 F   0  0  0  0  0  1           0  0  0
    0.0000    0.0000    0.0000 O   0  0  0  0  0  2           0  0  0
   -3.1142   -4.1083    8.9637 O   0  0  0  0  0  2           0  0  0
    6.2495   -0.3155    0.7722 O   0  0  0  0  0  2           0  0  0
   -4.2433   -1.6602    8.4842 N   0  0  0  0  0  3           0  0  0
   -3.3681   -1.0634    7.6551 N   0  0  0  0  0  3           0  0  0
   -1.6325    0.7528    6.0809 N   0  0  0  0  0  3           0  0  0
    0.1673    1.2290    4.5696 N   0  0  0  0  0  3           0  0  0
   -3.6175   -0.3492    5.3512 N   0  0  0  0  0  3           0  0  0
   -2.8796   -3.6709   11.2352 N   0  0  0  0  0  3           0  0  0
    4.2453    0.4424   -1.4276 N   0  0  1  0  0  3           0  0  0
   -1.9785   -5.0164   13.1001 C   0  0  0  0  0  4           0  0  0
   -1.3923   -6.1998   13.5391 C   0  0  0  0  0  4           0  0  0
   -0.5871    0.0000    1.2340 C   0  0  0  0  0  4           0  0  0
   -0.4234    1.2419    5.7731 C   0  0  0  0  0  4           0  0  0
   -4.0547   -0.9054    6.5118 C   0  0  0  0  0  4           0  0  0
   -2.3414    0.1944    5.0683 C   0  0  0  0  0  4           0  0  0
   -0.5172    0.6552    3.5720 C   0  0  0  0  0  4           0  0  0
   -5.4645   -1.8871    7.9250 C   0  0  0  0  0  4           0  0  0
   -2.2915   -4.8424   11.7492 C   0  0  0  0  0  4           0  0  0
   -1.8010    0.0982    3.7605 C   0  0  0  0  0  4           0  0  0
   -1.1111   -7.2292   12.6487 C   0  0  0  0  0  4           0  0  0
    0.0643    0.6062    2.3086 C   0  0  0  0  0  4           0  0  0
   -1.8493   -0.5501    1.3960 C   0  0  0  0  0  4           0  0  0
   -5.3762   -1.4099    6.6401 C   0  0  0  0  0  4           0  0  0
   -2.0069   -5.8795   10.8513 C   0  0  0  0  0  4           0  0  0
   -2.4483   -0.5077    2.6526 C   0  0  0  0  0  4           0  0  0
   -1.4199   -7.0668   11.3001 C   0  0  0  0  0  4           0  0  0
   -3.2408   -3.3631    9.9330 C   0  0  0  0  0  4           0  0  0
    1.4279   -0.0000    0.0000 C   0  0  0  0  0  4           0  0  0
    6.4058   -0.7410   -0.5758 C   0  0  0  0  0  4           0  0  0
   -3.8438   -1.9826    9.8357 C   0  0  0  0  0  4           0  0  0
    5.6899    0.2248   -1.5405 C   0  0  0  0  0  4           0  0  0
    3.7288    1.3899   -2.4218 C   0  0  0  0  0  4           0  0  0
    3.4548   -0.7899   -1.3682 C   0  0  0  0  0  4           0  0  0
    4.2586    2.8368   -2.4617 C   0  0  1  0  0  4           0  0  0
    1.9196   -0.7208   -1.2485 C   0  0  0  0  0  4           0  0  0
    3.5960    3.6626   -3.5666 C   0  0  0  0  0  4           0  0  0
    4.1147    3.5412   -1.1107 C   0  0  0  0  0  4           0  0  0
  1 13  1  0     0  0
  2 14  1  0     0  0
  3 15  1  0     0  0
  3 31  1  0     0  0
  4 30  2  0     0  0
  5 32  1  0     0  0
  6  7  1  0     0  0
  6 20  1  0     0  0
  6 33  1  0     0  0
  7 17  2  0     0  0
  8 16  1  0     0  0
  8 18  2  0     0  0
  9 16  2  0     0  0
  9 19  1  0     0  0
 10 17  1  0     0  0
 10 18  1  0     0  0
 11 21  1  0     0  0
 11 30  1  0     0  0
 12 34  1  0     0  0
 12 35  1  0     0  0
 12 36  1  0     0  0
 13 14  1  0     0  0
 13 21  2  0     0  0
 14 23  2  0     0  0
 15 24  2  0     0  0
 15 25  1  0     0  0
 17 26  1  0     0  0
 18 22  1  0     0  0
 19 22  2  0     0  0
 19 24  1  0     0  0
 20 26  2  0     0  0
 21 27  1  0     0  0
 22 28  1  0     0  0
 23 29  1  0     0  0
 25 28  2  0     0  0
 27 29  2  0     0  0
 30 33  1  0     0  0
 31 38  1  0     0  0
 32 34  1  0     0  0
 35 37  1  0     0  0
 36 38  1  0     0  0
 37 39  1  0     0  0
 37 40  1  0     0  0
M  END
> <standard_type>
pIC50

> <# Confs.>
25

> <canonical_smiles>
FC1=C(NC(CN2C=CC(NC3=NC=NC4=C3C=CC(OCCCN(CCO)CC(C)C)=C4)=N2)=O)C=CC=C1F

> <standard_relation>
=

> <Publication_ID>
nan

> <predicted_activity_value>
7.853871964321762

> <actual_activity_value>
8.045757490560675

> <Compound>
8

> <standard_units>
nM

> hash
5485682240152081559

$$$$
7
XXILIB    08252103493D 0   0.00000     0.00000

 40 43  0     1  0            999 V2000
   -2.2305   -4.0578   14.0028 F   0  0  0  0  0  1           0  0  0
   -1.0933   -6.3483   14.8371 F   0  0  0  0  0  1           0  0  0
    0.0000    0.0000    0.0000 O   0  0  0  0  0  2           0  0  0
   -3.1142   -4.1083    8.9637 O   0  0  0  0  0  2           0  0  0
   -0.9344   -0.8755   -4.8671 O   0  0  0  0  0  2           0  0  0
   -4.2433   -1.6602    8.4842 N   0  0  0  0  0  3           0  0  0
   -3.3681   -1.0634    7.6551 N   0  0  0  0  0  3           0  0  0
   -1.6325    0.7528    6.0809 N   0  0  0  0  0  3           0  0  0
    0.1673    1.2290    4.5696 N   0  0  0  0  0  3           0  0  0
   -3.6175   -0.3492    5.3512 N   0  0  0  0  0  3           0  0  0
   -2.8796   -3.6709   11.2352 N   0  0  0  0  0  3           0  0  0
    1.8506   -1.3568   -3.6661 N   0  0  1  0  0  3           0  0  0
   -1.9785   -5.0164   13.1001 C   0  0  0  0  0  4           0  0  0
   -1.3923   -6.1998   13.5391 C   0  0  0  0  0  4           0  0  0
   -0.5871    0.0000    1.2340 C   0  0  0  0  0  4           0  0  0
   -0.4234    1.2419    5.7731 C   0  0  0  0  0  4           0  0  0
   -4.0547   -0.9054    6.5118 C   0  0  0  0  0  4           0  0  0
   -2.3414    0.1944    5.0683 C   0  0  0  0  0  4           0  0  0
   -0.5172    0.6552    3.5720 C   0  0  0  0  0  4           0  0  0
   -5.4645   -1.8871    7.9250 C   0  0  0  0  0  4           0  0  0
   -2.2915   -4.8424   11.7492 C   0  0  0  0  0  4           0  0  0
   -1.8010    0.0982    3.7605 C   0  0  0  0  0  4           0  0  0
   -1.1111   -7.2292   12.6487 C   0  0  0  0  0  4           0  0  0
    0.0643    0.6062    2.3086 C   0  0  0  0  0  4           0  0  0
   -1.8493   -0.5501    1.3960 C   0  0  0  0  0  4           0  0  0
   -5.3762   -1.4099    6.6401 C   0  0  0  0  0  4           0  0  0
   -2.0069   -5.8795   10.8513 C   0  0  0  0  0  4           0  0  0
   -2.4483   -0.5077    2.6526 C   0  0  0  0  0  4           0  0  0
   -1.4199   -7.0668   11.3001 C   0  0  0  0  0  4           0  0  0
   -3.2408   -3.3631    9.9330 C   0  0  0  0  0  4           0  0  0
    1.4279   -0.0000    0.0000 C   0  0  0  0  0  4           0  0  0
   -0.0715    0.1936   -4.5001 C   0  0  0  0  0  4           0  0  0
   -3.8438   -1.9826    9.8357 C   0  0  0  0  0  4           0  0  0
    1.4017   -0.2591   -4.5266 C   0  0  0  0  0  4           0  0  0
    3.2789   -1.6568   -3.8176 C   0  0  0  0  0  4           0  0  0
    1.4553   -1.2197   -2.2619 C   0  0  0  0  0  4           0  0  0
    3.8393   -2.0870   -5.1875 C   0  0  1  0  0  4           0  0  0
    1.9196    0.0000   -1.4417 C   0  0  0  0  0  4           0  0  0
    5.3454   -2.3529   -5.1360 C   0  0  0  0  0  4           0  0  0
    3.1027   -3.3020   -5.7563 C   0  0  0  0  0  4           0  0  0
  1 13  1  0     0  0
  2 14  1  0     0  0
  3 15  1  0     0  0
  3 31  1  0     0  0
  4 30  2  0     0  0
  5 32  1  0     0  0
  6  7  1  0     0  0
  6 20  1  0     0  0
  6 33  1  0     0  0
  7 17  2  0     0  0
  8 16  1  0     0  0
  8 18  2  0     0  0
  9 16  2  0     0  0
  9 19  1  0     0  0
 10 17  1  0     0  0
 10 18  1  0     0  0
 11 21  1  0     0  0
 11 30  1  0     0  0
 12 34  1  0     0  0
 12 35  1  0     0  0
 12 36  1  0     0  0
 13 14  1  0     0  0
 13 21  2  0     0  0
 14 23  2  0     0  0
 15 24  2  0     0  0
 15 25  1  0     0  0
 17 26  1  0     0  0
 18 22  1  0     0  0
 19 22  2  0     0  0
 19 24  1  0     0  0
 20 26  2  0     0  0
 21 27  1  0     0  0
 22 28  1  0     0  0
 23 29  1  0     0  0
 25 28  2  0     0  0
 27 29  2  0     0  0
 30 33  1  0     0  0
 31 38  1  0     0  0
 32 34  1  0     0  0
 35 37  1  0     0  0
 36 38  1  0     0  0
 37 39  1  0     0  0
 37 40  1  0     0  0
M  END
> <standard_type>
pIC50

> <# Confs.>
25

> <canonical_smiles>
FC1=C(NC(CN2C=CC(NC3=NC=NC4=C3C=CC(OCCCN(CCO)CC(C)C)=C4)=N2)=O)C=CC=C1F

> <standard_relation>
=

> <Publication_ID>
nan

> <predicted_activity_value>
7.853871964321762

> <actual_activity_value>
8.045757490560675

> <Compound>
8

> <standard_units>
nM

> hash
5485682240152081559

$$$$
7
XXILIB    08252103493D 0   0.00000     0.00000

 40 43  0     1  0            999 V2000
   -4.4780    5.4948   12.9335 F   0  0  0  0  0  1           0  0  0
   -3.4260    7.8397   13.7273 F   0  0  0  0  0  1           0  0  0
    0.0000    0.0000    0.0000 O   0  0  0  0  0  2           0  0  0
   -1.3088    2.9539    9.8227 O   0  0  0  0  0  2           0  0  0
   -1.0038   -2.2794   -3.5826 O   0  0  0  0  0  2           0  0  0
   -2.6923    0.6685    9.2221 N   0  0  0  0  0  3           0  0  0
   -2.8718    0.7461    7.8912 N   0  0  0  0  0  3           0  0  0
   -3.7632    0.6095    5.0671 N   0  0  0  0  0  3           0  0  0
   -3.6577    1.2166    2.7497 N   0  0  0  0  0  3           0  0  0
   -2.0339   -0.6633    6.1046 N   0  0  0  0  0  3           0  0  0
   -3.0251    3.7640   11.1660 N   0  0  0  0  0  3           0  0  0
    1.8239   -1.3086   -2.8813 N   0  0  1  0  0  3           0  0  0
   -3.2592    5.8353   12.4908 C   0  0  0  0  0  4           0  0  0
   -2.7200    7.0487   12.9074 C   0  0  0  0  0  4           0  0  0
   -0.5871    0.0000    1.2340 C   0  0  0  0  0  4           0  0  0
   -4.2364    1.1960    3.9589 C   0  0  0  0  0  4           0  0  0
   -2.1769   -0.2953    7.4052 C   0  0  0  0  0  4           0  0  0
   -2.5791   -0.0424    4.9552 C   0  0  0  0  0  4           0  0  0
   -2.4757    0.5970    2.6402 C   0  0  0  0  0  4           0  0  0
   -1.9169   -0.3811    9.6129 C   0  0  0  0  0  4           0  0  0
   -2.5393    5.0008   11.6313 C   0  0  0  0  0  4           0  0  0
   -1.8633   -0.0584    3.7308 C   0  0  0  0  0  4           0  0  0
   -1.4595    7.4520   12.4829 C   0  0  0  0  0  4           0  0  0
   -1.8319    0.6062    1.4064 C   0  0  0  0  0  4           0  0  0
    0.0304   -0.6517    2.2903 C   0  0  0  0  0  4           0  0  0
   -1.5621   -1.0287    8.4549 C   0  0  0  0  0  4           0  0  0
   -1.2692    5.4078   11.2023 C   0  0  0  0  0  4           0  0  0
   -0.6004   -0.6738    3.5319 C   0  0  0  0  0  4           0  0  0
   -0.7329    6.6275   11.6270 C   0  0  0  0  0  4           0  0  0
   -2.4274    2.8430   10.3200 C   0  0  0  0  0  4           0  0  0
    1.4279    0.0000    0.0000 C   0  0  0  0  0  4           0  0  0
   -0.1747   -1.6131   -4.5266 C   0  0  0  0  0  4           0  0  0
   -3.3158    1.6450   10.0869 C   0  0  0  0  0  4           0  0  0
    1.3139   -1.7903   -4.1678 C   0  0  0  0  0  4           0  0  0
    3.2589   -1.5580   -2.7039 C   0  0  0  0  0  4           0  0  0
    1.4553    0.0746   -2.5687 C   0  0  0  0  0  4           0  0  0
    3.8046   -2.9993   -2.7343 C   0  0  1  0  0  4           0  0  0
    1.9196    0.7208   -1.2485 C   0  0  0  0  0  4           0  0  0
    5.3206   -3.0456   -2.5312 C   0  0  0  0  0  4           0  0  0
    3.1027   -3.9032   -1.7183 C   0  0  0  0  0  4           0  0  0
  1 13  1  0     0  0
  2 14  1  0     0  0
  3 15  1  0     0  0
  3 31  1  0     0  0
  4 30  2  0     0  0
  5 32  1  0     0  0
  6  7  1  0     0  0
  6 20  1  0     0  0
  6 33  1  0     0  0
  7 17  2  0     0  0
  8 16  1  0     0  0
  8 18  2  0     0  0
  9 16  2  0     0  0
  9 19  1  0     0  0
 10 17  1  0     0  0
 10 18  1  0     0  0
 11 21  1  0     0  0
 11 30  1  0     0  0
 12 34  1  0     0  0
 12 35  1  0     0  0
 12 36  1  0     0  0
 13 14  1  0     0  0
 13 21  2  0     0  0
 14 23  2  0     0  0
 15 24  2  0     0  0
 15 25  1  0     0  0
 17 26  1  0     0  0
 18 22  1  0     0  0
 19 22  2  0     0  0
 19 24  1  0     0  0
 20 26  2  0     0  0
 21 27  1  0     0  0
 22 28  1  0     0  0
 23 29  1  0     0  0
 25 28  2  0     0  0
 27 29  2  0     0  0
 30 33  1  0     0  0
 31 38  1  0     0  0
 32 34  1  0     0  0
 35 37  1  0     0  0
 36 38  1  0     0  0
 37 39  1  0     0  0
 37 40  1  0     0  0
M  END
> <standard_type>
pIC50

> <# Confs.>
25

> <canonical_smiles>
FC1=C(NC(CN2C=CC(NC3=NC=NC4=C3C=CC(OCCCN(CCO)CC(C)C)=C4)=N2)=O)C=CC=C1F

> <standard_relation>
=

> <Publication_ID>
nan

> <predicted_activity_value>
7.853871964321762

> <actual_activity_value>
8.045757490560675

> <Compound>
8

> <standard_units>
nM

> hash
5485682240152081559

$$$$
7
XXILIB    08252103493D 0   0.00000     0.00000

 40 43  0     1  0            999 V2000
   -2.2305   -4.0578   14.0028 F   0  0  0  0  0  1           0  0  0
   -1.0933   -6.3483   14.8371 F   0  0  0  0  0  1           0  0  0
    0.0000    0.0000    0.0000 O   0  0  0  0  0  2           0  0  0
   -3.1142   -4.1083    8.9637 O   0  0  0  0  0  2           0  0  0
    3.8869   -5.2112   -0.8453 O   0  0  0  0  0  2           0  0  0
   -4.2433   -1.6602    8.4842 N   0  0  0  0  0  3           0  0  0
   -3.3681   -1.0634    7.6551 N   0  0  0  0  0  3           0  0  0
   -1.6325    0.7528    6.0809 N   0  0  0  0  0  3           0  0  0
    0.1673    1.2290    4.5696 N   0  0  0  0  0  3           0  0  0
   -3.6175   -0.3492    5.3512 N   0  0  0  0  0  3           0  0  0
   -2.8796   -3.6709   11.2352 N   0  0  0  0  0  3           0  0  0
    4.2453   -1.4576   -0.3307 N   0  0  1  0  0  3           0  0  0
   -1.9785   -5.0164   13.1001 C   0  0  0  0  0  4           0  0  0
   -1.3923   -6.1998   13.5391 C   0  0  0  0  0  4           0  0  0
   -0.5871    0.0000    1.2340 C   0  0  0  0  0  4           0  0  0
   -0.4234    1.2419    5.7731 C   0  0  0  0  0  4           0  0  0
   -4.0547   -0.9054    6.5118 C   0  0  0  0  0  4           0  0  0
   -2.3414    0.1944    5.0683 C   0  0  0  0  0  4           0  0  0
   -0.5172    0.6552    3.5720 C   0  0  0  0  0  4           0  0  0
   -5.4645   -1.8871    7.9250 C   0  0  0  0  0  4           0  0  0
   -2.2915   -4.8424   11.7492 C   0  0  0  0  0  4           0  0  0
   -1.8010    0.0982    3.7605 C   0  0  0  0  0  4           0  0  0
   -1.1111   -7.2292   12.6487 C   0  0  0  0  0  4           0  0  0
    0.0643    0.6062    2.3086 C   0  0  0  0  0  4           0  0  0
   -1.8493   -0.5501    1.3960 C   0  0  0  0  0  4           0  0  0
   -5.3762   -1.4099    6.6401 C   0  0  0  0  0  4           0  0  0
   -2.0069   -5.8795   10.8513 C   0  0  0  0  0  4           0  0  0
   -2.4483   -0.5077    2.6526 C   0  0  0  0  0  4           0  0  0
   -1.4199   -7.0668   11.3001 C   0  0  0  0  0  4           0  0  0
   -3.2408   -3.3631    9.9330 C   0  0  0  0  0  4           0  0  0
    1.4279   -0.0000   -0.0000 C   0  0  0  0  0  4           0  0  0
    4.2946   -3.9039   -1.2290 C   0  0  0  0  0  4           0  0  0
   -3.8438   -1.9826    9.8357 C   0  0  0  0  0  4           0  0  0
    3.9193   -2.8740   -0.1452 C   0  0  0  0  0  4           0  0  0
    5.6844   -1.2156   -0.4826 C   0  0  0  0  0  4           0  0  0
    3.4548   -0.7899   -1.3682 C   0  0  0  0  0  4           0  0  0
    6.6602   -1.6141    0.6422 C   0  0  1  0  0  4           0  0  0
    1.9196   -0.7208   -1.2485 C   0  0  0  0  0  4           0  0  0
    8.1115   -1.2795    0.2910 C   0  0  0  0  0  4           0  0  0
    6.2787   -0.9878    1.9855 C   0  0  0  0  0  4           0  0  0
  1 13  1  0     0  0
  2 14  1  0     0  0
  3 15  1  0     0  0
  3 31  1  0     0  0
  4 30  2  0     0  0
  5 32  1  0     0  0
  6  7  1  0     0  0
  6 20  1  0     0  0
  6 33  1  0     0  0
  7 17  2  0     0  0
  8 16  1  0     0  0
  8 18  2  0     0  0
  9 16  2  0     0  0
  9 19  1  0     0  0
 10 17  1  0     0  0
 10 18  1  0     0  0
 11 21  1  0     0  0
 11 30  1  0     0  0
 12 34  1  0     0  0
 12 35  1  0     0  0
 12 36  1  0     0  0
 13 14  1  0     0  0
 13 21  2  0     0  0
 14 23  2  0     0  0
 15 24  2  0     0  0
 15 25  1  0     0  0
 17 26  1  0     0  0
 18 22  1  0     0  0
 19 22  2  0     0  0
 19 24  1  0     0  0
 20 26  2  0     0  0
 21 27  1  0     0  0
 22 28  1  0     0  0
 23 29  1  0     0  0
 25 28  2  0     0  0
 27 29  2  0     0  0
 30 33  1  0     0  0
 31 38  1  0     0  0
 32 34  1  0     0  0
 35 37  1  0     0  0
 36 38  1  0     0  0
 37 39  1  0     0  0
 37 40  1  0     0  0
M  END
> <standard_type>
pIC50

> <# Confs.>
25

> <canonical_smiles>
FC1=C(NC(CN2C=CC(NC3=NC=NC4=C3C=CC(OCCCN(CCO)CC(C)C)=C4)=N2)=O)C=CC=C1F

> <standard_relation>
=

> <Publication_ID>
nan

> <predicted_activity_value>
7.853871964321762

> <actual_activity_value>
8.045757490560675

> <Compound>
8

> <standard_units>
nM

> hash
5485682240152081559

$$$$
7
XXILIB    08252103493D 0   0.00000     0.00000

 40 43  0     1  0            999 V2000
   -2.2305   -4.0578   14.0028 F   0  0  0  0  0  1           0  0  0
   -1.0933   -6.3483   14.8371 F   0  0  0  0  0  1           0  0  0
    0.0000    0.0000    0.0000 O   0  0  0  0  0  2           0  0  0
   -3.1142   -4.1083    8.9637 O   0  0  0  0  0  2           0  0  0
    5.1880   -2.8592   -2.7789 O   0  0  0  0  0  2           0  0  0
   -4.2433   -1.6602    8.4842 N   0  0  0  0  0  3           0  0  0
   -3.3681   -1.0634    7.6551 N   0  0  0  0  0  3           0  0  0
   -1.6325    0.7528    6.0809 N   0  0  0  0  0  3           0  0  0
    0.1673    1.2290    4.5696 N   0  0  0  0  0  3           0  0  0
   -3.6175   -0.3492    5.3512 N   0  0  0  0  0  3           0  0  0
   -2.8796   -3.6709   11.2352 N   0  0  0  0  0  3           0  0  0
    4.0749    0.0000   -2.9075 N   0  0  1  0  0  3           0  0  0
   -1.9785   -5.0164   13.1001 C   0  0  0  0  0  4           0  0  0
   -1.3923   -6.1998   13.5391 C   0  0  0  0  0  4           0  0  0
   -0.5871    0.0000    1.2340 C   0  0  0  0  0  4           0  0  0
   -0.4234    1.2419    5.7731 C   0  0  0  0  0  4           0  0  0
   -4.0547   -0.9054    6.5118 C   0  0  0  0  0  4           0  0  0
   -2.3414    0.1944    5.0683 C   0  0  0  0  0  4           0  0  0
   -0.5172    0.6552    3.5720 C   0  0  0  0  0  4           0  0  0
   -5.4645   -1.8871    7.9250 C   0  0  0  0  0  4           0  0  0
   -2.2915   -4.8424   11.7492 C   0  0  0  0  0  4           0  0  0
   -1.8010    0.0982    3.7605 C   0  0  0  0  0  4           0  0  0
   -1.1111   -7.2292   12.6487 C   0  0  0  0  0  4           0  0  0
    0.0643    0.6062    2.3086 C   0  0  0  0  0  4           0  0  0
   -1.8493   -0.5501    1.3960 C   0  0  0  0  0  4           0  0  0
   -5.3762   -1.4099    6.6401 C   0  0  0  0  0  4           0  0  0
   -2.0069   -5.8795   10.8513 C   0  0  0  0  0  4           0  0  0
   -2.4483   -0.5077    2.6526 C   0  0  0  0  0  4           0  0  0
   -1.4199   -7.0668   11.3001 C   0  0  0  0  0  4           0  0  0
   -3.2408   -3.3631    9.9330 C   0  0  0  0  0  4           0  0  0
    1.4279   -0.0000    0.0000 C   0  0  0  0  0  4           0  0  0
    3.8469   -2.5839   -3.1637 C   0  0  0  0  0  4           0  0  0
   -3.8438   -1.9826    9.8357 C   0  0  0  0  0  4           0  0  0
    3.7238   -1.1574   -3.7346 C   0  0  0  0  0  4           0  0  0
    3.8993    1.2783   -3.6060 C   0  0  0  0  0  4           0  0  0
    3.4548   -0.0000   -1.5799 C   0  0  0  0  0  4           0  0  0
    4.6872    1.5698   -4.8984 C   0  0  1  0  0  4           0  0  0
    1.9196    0.0000   -1.4417 C   0  0  0  0  0  4           0  0  0
    4.3639    2.9516   -5.4708 C   0  0  0  0  0  4           0  0  0
    6.1969    1.4145   -4.7009 C   0  0  0  0  0  4           0  0  0
  1 13  1  0     0  0
  2 14  1  0     0  0
  3 15  1  0     0  0
  3 31  1  0     0  0
  4 30  2  0     0  0
  5 32  1  0     0  0
  6  7  1  0     0  0
  6 20  1  0     0  0
  6 33  1  0     0  0
  7 17  2  0     0  0
  8 16  1  0     0  0
  8 18  2  0     0  0
  9 16  2  0     0  0
  9 19  1  0     0  0
 10 17  1  0     0  0
 10 18  1  0     0  0
 11 21  1  0     0  0
 11 30  1  0     0  0
 12 34  1  0     0  0
 12 35  1  0     0  0
 12 36  1  0     0  0
 13 14  1  0     0  0
 13 21  2  0     0  0
 14 23  2  0     0  0
 15 24  2  0     0  0
 15 25  1  0     0  0
 17 26  1  0     0  0
 18 22  1  0     0  0
 19 22  2  0     0  0
 19 24  1  0     0  0
 20 26  2  0     0  0
 21 27  1  0     0  0
 22 28  1  0     0  0
 23 29  1  0     0  0
 25 28  2  0     0  0
 27 29  2  0     0  0
 30 33  1  0     0  0
 31 38  1  0     0  0
 32 34  1  0     0  0
 35 37  1  0     0  0
 36 38  1  0     0  0
 37 39  1  0     0  0
 37 40  1  0     0  0
M  END
> <standard_type>
pIC50

> <# Confs.>
25

> <canonical_smiles>
FC1=C(NC(CN2C=CC(NC3=NC=NC4=C3C=CC(OCCCN(CCO)CC(C)C)=C4)=N2)=O)C=CC=C1F

> <standard_relation>
=

> <Publication_ID>
nan

> <predicted_activity_value>
7.853871964321762

> <actual_activity_value>
8.045757490560675

> <Compound>
8

> <standard_units>
nM

> hash
5485682240152081559

$$$$
7
XXILIB    08252103493D 0   0.00000     0.00000

 40 43  0     1  0            999 V2000
   -4.4780    5.4948   12.9335 F   0  0  0  0  0  1           0  0  0
   -3.4260    7.8397   13.7273 F   0  0  0  0  0  1           0  0  0
    0.0000    0.0000    0.0000 O   0  0  0  0  0  2           0  0  0
   -1.3088    2.9539    9.8227 O   0  0  0  0  0  2           0  0  0
   -0.9344   -0.8755   -4.8671 O   0  0  0  0  0  2           0  0  0
   -2.6923    0.6685    9.2221 N   0  0  0  0  0  3           0  0  0
   -2.8718    0.7461    7.8912 N   0  0  0  0  0  3           0  0  0
   -3.7632    0.6095    5.0671 N   0  0  0  0  0  3           0  0  0
   -3.6577    1.2166    2.7497 N   0  0  0  0  0  3           0  0  0
   -2.0339   -0.6633    6.1046 N   0  0  0  0  0  3           0  0  0
   -3.0251    3.7640   11.1660 N   0  0  0  0  0  3           0  0  0
    1.8506   -1.3568   -3.6661 N   0  0  1  0  0  3           0  0  0
   -3.2592    5.8353   12.4908 C   0  0  0  0  0  4           0  0  0
   -2.7200    7.0487   12.9074 C   0  0  0  0  0  4           0  0  0
   -0.5871    0.0000    1.2340 C   0  0  0  0  0  4           0  0  0
   -4.2364    1.1960    3.9589 C   0  0  0  0  0  4           0  0  0
   -2.1769   -0.2953    7.4052 C   0  0  0  0  0  4           0  0  0
   -2.5791   -0.0424    4.9552 C   0  0  0  0  0  4           0  0  0
   -2.4757    0.5970    2.6402 C   0  0  0  0  0  4           0  0  0
   -1.9169   -0.3811    9.6129 C   0  0  0  0  0  4           0  0  0
   -2.5393    5.0008   11.6313 C   0  0  0  0  0  4           0  0  0
   -1.8633   -0.0584    3.7308 C   0  0  0  0  0  4           0  0  0
   -1.4595    7.4520   12.4829 C   0  0  0  0  0  4           0  0  0
   -1.8319    0.6062    1.4064 C   0  0  0  0  0  4           0  0  0
    0.0304   -0.6517    2.2903 C   0  0  0  0  0  4           0  0  0
   -1.5621   -1.0287    8.4549 C   0  0  0  0  0  4           0  0  0
   -1.2692    5.4078   11.2023 C   0  0  0  0  0  4           0  0  0
   -0.6004   -0.6738    3.5319 C   0  0  0  0  0  4           0  0  0
   -0.7329    6.6275   11.6270 C   0  0  0  0  0  4           0  0  0
   -2.4274    2.8430   10.3200 C   0  0  0  0  0  4           0  0  0
    1.4279   -0.0000    0.0000 C   0  0  0  0  0  4           0  0  0
   -0.0715    0.1936   -4.5001 C   0  0  0  0  0  4           0  0  0
   -3.3158    1.6450   10.0869 C   0  0  0  0  0  4           0  0  0
    1.4017   -0.2591   -4.5266 C   0  0  0  0  0  4           0  0  0
    3.2789   -1.6568   -3.8176 C   0  0  0  0  0  4           0  0  0
    1.4553   -1.2197   -2.2619 C   0  0  0  0  0  4           0  0  0
    3.8393   -2.0870   -5.1875 C   0  0  1  0  0  4           0  0  0
    1.9196    0.0000   -1.4417 C   0  0  0  0  0  4           0  0  0
    5.3454   -2.3529   -5.1360 C   0  0  0  0  0  4           0  0  0
    3.1027   -3.3020   -5.7563 C   0  0  0  0  0  4           0  0  0
  1 13  1  0     0  0
  2 14  1  0     0  0
  3 15  1  0     0  0
  3 31  1  0     0  0
  4 30  2  0     0  0
  5 32  1  0     0  0
  6  7  1  0     0  0
  6 20  1  0     0  0
  6 33  1  0     0  0
  7 17  2  0     0  0
  8 16  1  0     0  0
  8 18  2  0     0  0
  9 16  2  0     0  0
  9 19  1  0     0  0
 10 17  1  0     0  0
 10 18  1  0     0  0
 11 21  1  0     0  0
 11 30  1  0     0  0
 12 34  1  0     0  0
 12 35  1  0     0  0
 12 36  1  0     0  0
 13 14  1  0     0  0
 13 21  2  0     0  0
 14 23  2  0     0  0
 15 24  2  0     0  0
 15 25  1  0     0  0
 17 26  1  0     0  0
 18 22  1  0     0  0
 19 22  2  0     0  0
 19 24  1  0     0  0
 20 26  2  0     0  0
 21 27  1  0     0  0
 22 28  1  0     0  0
 23 29  1  0     0  0
 25 28  2  0     0  0
 27 29  2  0     0  0
 30 33  1  0     0  0
 31 38  1  0     0  0
 32 34  1  0     0  0
 35 37  1  0     0  0
 36 38  1  0     0  0
 37 39  1  0     0  0
 37 40  1  0     0  0
M  END
> <standard_type>
pIC50

> <# Confs.>
25

> <canonical_smiles>
FC1=C(NC(CN2C=CC(NC3=NC=NC4=C3C=CC(OCCCN(CCO)CC(C)C)=C4)=N2)=O)C=CC=C1F

> <standard_relation>
=

> <Publication_ID>
nan

> <predicted_activity_value>
7.853871964321762

> <actual_activity_value>
8.045757490560675

> <Compound>
8

> <standard_units>
nM

> hash
5485682240152081559

$$$$
7
XXILIB    08252103493D 0   0.00000     0.00000

 40 43  0     1  0            999 V2000
   -2.2305   -4.0578   14.0028 F   0  0  0  0  0  1           0  0  0
   -1.0933   -6.3483   14.8371 F   0  0  0  0  0  1           0  0  0
    0.0000    0.0000    0.0000 O   0  0  0  0  0  2           0  0  0
   -3.1142   -4.1083    8.9637 O   0  0  0  0  0  2           0  0  0
    3.7527    3.7347   -3.2685 O   0  0  0  0  0  2           0  0  0
   -4.2433   -1.6602    8.4842 N   0  0  0  0  0  3           0  0  0
   -3.3681   -1.0634    7.6551 N   0  0  0  0  0  3           0  0  0
   -1.6325    0.7528    6.0809 N   0  0  0  0  0  3           0  0  0
    0.1673    1.2290    4.5696 N   0  0  0  0  0  3           0  0  0
   -3.6175   -0.3492    5.3512 N   0  0  0  0  0  3           0  0  0
   -2.8796   -3.6709   11.2352 N   0  0  0  0  0  3           0  0  0
    1.8506    1.3568   -3.6661 N   0  0  1  0  0  3           0  0  0
   -1.9785   -5.0164   13.1001 C   0  0  0  0  0  4           0  0  0
   -1.3923   -6.1998   13.5391 C   0  0  0  0  0  4           0  0  0
   -0.5871    0.0000    1.2340 C   0  0  0  0  0  4           0  0  0
   -0.4234    1.2419    5.7731 C   0  0  0  0  0  4           0  0  0
   -4.0547   -0.9054    6.5118 C   0  0  0  0  0  4           0  0  0
   -2.3414    0.1944    5.0683 C   0  0  0  0  0  4           0  0  0
   -0.5172    0.6552    3.5720 C   0  0  0  0  0  4           0  0  0
   -5.4645   -1.8871    7.9250 C   0  0  0  0  0  4           0  0  0
   -2.2915   -4.8424   11.7492 C   0  0  0  0  0  4           0  0  0
   -1.8010    0.0982    3.7605 C   0  0  0  0  0  4           0  0  0
   -1.1111   -7.2292   12.6487 C   0  0  0  0  0  4           0  0  0
    0.0643    0.6062    2.3086 C   0  0  0  0  0  4           0  0  0
   -1.8493   -0.5501    1.3960 C   0  0  0  0  0  4           0  0  0
   -5.3762   -1.4099    6.6401 C   0  0  0  0  0  4           0  0  0
   -2.0069   -5.8795   10.8513 C   0  0  0  0  0  4           0  0  0
   -2.4483   -0.5077    2.6526 C   0  0  0  0  0  4           0  0  0
   -1.4199   -7.0668   11.3001 C   0  0  0  0  0  4           0  0  0
   -3.2408   -3.3631    9.9330 C   0  0  0  0  0  4           0  0  0
    1.4279   -0.0000   -0.0000 C   0  0  0  0  0  4           0  0  0
    4.1643    2.3902   -3.0554 C   0  0  0  0  0  4           0  0  0
   -3.8438   -1.9826    9.8357 C   0  0  0  0  0  4           0  0  0
    3.2990    1.4165   -3.8795 C   0  0  0  0  0  4           0  0  0
    1.1833    0.3785   -4.5323 C   0  0  0  0  0  4           0  0  0
    1.4553    1.2197   -2.2619 C   0  0  0  0  0  4           0  0  0
    1.2659    0.5172   -6.0653 C   0  0  1  0  0  4           0  0  0
    1.9196    0.0000   -1.4417 C   0  0  0  0  0  4           0  0  0
    0.5067   -0.5987   -6.7863 C   0  0  0  0  0  4           0  0  0
    0.7838    1.8875   -6.5472 C   0  0  0  0  0  4           0  0  0
  1 13  1  0     0  0
  2 14  1  0     0  0
  3 15  1  0     0  0
  3 31  1  0     0  0
  4 30  2  0     0  0
  5 32  1  0     0  0
  6  7  1  0     0  0
  6 20  1  0     0  0
  6 33  1  0     0  0
  7 17  2  0     0  0
  8 16  1  0     0  0
  8 18  2  0     0  0
  9 16  2  0     0  0
  9 19  1  0     0  0
 10 17  1  0     0  0
 10 18  1  0     0  0
 11 21  1  0     0  0
 11 30  1  0     0  0
 12 34  1  0     0  0
 12 35  1  0     0  0
 12 36  1  0     0  0
 13 14  1  0     0  0
 13 21  2  0     0  0
 14 23  2  0     0  0
 15 24  2  0     0  0
 15 25  1  0     0  0
 17 26  1  0     0  0
 18 22  1  0     0  0
 19 22  2  0     0  0
 19 24  1  0     0  0
 20 26  2  0     0  0
 21 27  1  0     0  0
 22 28  1  0     0  0
 23 29  1  0     0  0
 25 28  2  0     0  0
 27 29  2  0     0  0
 30 33  1  0     0  0
 31 38  1  0     0  0
 32 34  1  0     0  0
 35 37  1  0     0  0
 36 38  1  0     0  0
 37 39  1  0     0  0
 37 40  1  0     0  0
M  END
> <standard_type>
pIC50

> <# Confs.>
25

> <canonical_smiles>
FC1=C(NC(CN2C=CC(NC3=NC=NC4=C3C=CC(OCCCN(CCO)CC(C)C)=C4)=N2)=O)C=CC=C1F

> <standard_relation>
=

> <Publication_ID>
nan

> <predicted_activity_value>
7.853871964321762

> <actual_activity_value>
8.045757490560675

> <Compound>
8

> <standard_units>
nM

> hash
5485682240152081559

$$$$
7
XXILIB    08252103493D 0   0.00000     0.00000

 40 43  0     1  0            999 V2000
   -4.4780    5.4948   12.9335 F   0  0  0  0  0  1           0  0  0
   -3.4260    7.8397   13.7273 F   0  0  0  0  0  1           0  0  0
    0.0000    0.0000    0.0000 O   0  0  0  0  0  2           0  0  0
   -1.3088    2.9539    9.8227 O   0  0  0  0  0  2           0  0  0
    2.8898   -1.9403   -5.1179 O   0  0  0  0  0  2           0  0  0
   -2.6923    0.6685    9.2221 N   0  0  0  0  0  3           0  0  0
   -2.8718    0.7461    7.8912 N   0  0  0  0  0  3           0  0  0
   -3.7632    0.6095    5.0671 N   0  0  0  0  0  3           0  0  0
   -3.6577    1.2166    2.7497 N   0  0  0  0  0  3           0  0  0
   -2.0339   -0.6633    6.1046 N   0  0  0  0  0  3           0  0  0
   -3.0251    3.7640   11.1660 N   0  0  0  0  0  3           0  0  0
    1.8506    0.6580   -3.8534 N   0  0  1  0  0  3           0  0  0
   -3.2592    5.8353   12.4908 C   0  0  0  0  0  4           0  0  0
   -2.7200    7.0487   12.9074 C   0  0  0  0  0  4           0  0  0
   -0.5871    0.0000    1.2340 C   0  0  0  0  0  4           0  0  0
   -4.2364    1.1960    3.9589 C   0  0  0  0  0  4           0  0  0
   -2.1769   -0.2953    7.4052 C   0  0  0  0  0  4           0  0  0
   -2.5791   -0.0424    4.9552 C   0  0  0  0  0  4           0  0  0
   -2.4757    0.5970    2.6402 C   0  0  0  0  0  4           0  0  0
   -1.9169   -0.3811    9.6129 C   0  0  0  0  0  4           0  0  0
   -2.5393    5.0008   11.6313 C   0  0  0  0  0  4           0  0  0
   -1.8633   -0.0584    3.7308 C   0  0  0  0  0  4           0  0  0
   -1.4595    7.4520   12.4829 C   0  0  0  0  0  4           0  0  0
   -1.8319    0.6062    1.4064 C   0  0  0  0  0  4           0  0  0
    0.0304   -0.6517    2.2903 C   0  0  0  0  0  4           0  0  0
   -1.5621   -1.0287    8.4549 C   0  0  0  0  0  4           0  0  0
   -1.2692    5.4078   11.2023 C   0  0  0  0  0  4           0  0  0
   -0.6004   -0.6738    3.5319 C   0  0  0  0  0  4           0  0  0
   -0.7329    6.6275   11.6270 C   0  0  0  0  0  4           0  0  0
   -2.4274    2.8430   10.3200 C   0  0  0  0  0  4           0  0  0
    1.4279   -0.0000    0.0000 C   0  0  0  0  0  4           0  0  0
    1.5121   -1.5879   -5.1321 C   0  0  0  0  0  4           0  0  0
   -3.3158    1.6450   10.0869 C   0  0  0  0  0  4           0  0  0
    1.3374   -0.0603   -5.0228 C   0  0  0  0  0  4           0  0  0
    1.5992    2.1023   -3.9119 C   0  0  0  0  0  4           0  0  0
    1.4553    0.0746   -2.5687 C   0  0  0  0  0  4           0  0  0
    2.1738    2.9427   -5.0694 C   0  0  1  0  0  4           0  0  0
    1.9196    0.7208   -1.2485 C   0  0  0  0  0  4           0  0  0
    1.8001    4.4216   -4.9482 C   0  0  0  0  0  4           0  0  0
    3.6906    2.7850   -5.1989 C   0  0  0  0  0  4           0  0  0
  1 13  1  0     0  0
  2 14  1  0     0  0
  3 15  1  0     0  0
  3 31  1  0     0  0
  4 30  2  0     0  0
  5 32  1  0     0  0
  6  7  1  0     0  0
  6 20  1  0     0  0
  6 33  1  0     0  0
  7 17  2  0     0  0
  8 16  1  0     0  0
  8 18  2  0     0  0
  9 16  2  0     0  0
  9 19  1  0     0  0
 10 17  1  0     0  0
 10 18  1  0     0  0
 11 21  1  0     0  0
 11 30  1  0     0  0
 12 34  1  0     0  0
 12 35  1  0     0  0
 12 36  1  0     0  0
 13 14  1  0     0  0
 13 21  2  0     0  0
 14 23  2  0     0  0
 15 24  2  0     0  0
 15 25  1  0     0  0
 17 26  1  0     0  0
 18 22  1  0     0  0
 19 22  2  0     0  0
 19 24  1  0     0  0
 20 26  2  0     0  0
 21 27  1  0     0  0
 22 28  1  0     0  0
 23 29  1  0     0  0
 25 28  2  0     0  0
 27 29  2  0     0  0
 30 33  1  0     0  0
 31 38  1  0     0  0
 32 34  1  0     0  0
 35 37  1  0     0  0
 36 38  1  0     0  0
 37 39  1  0     0  0
 37 40  1  0     0  0
M  END
> <standard_type>
pIC50

> <# Confs.>
25

> <canonical_smiles>
FC1=C(NC(CN2C=CC(NC3=NC=NC4=C3C=CC(OCCCN(CCO)CC(C)C)=C4)=N2)=O)C=CC=C1F

> <standard_relation>
=

> <Publication_ID>
nan

> <predicted_activity_value>
7.853871964321762

> <actual_activity_value>
8.045757490560675

> <Compound>
8

> <standard_units>
nM

> hash
5485682240152081559

$$$$
7
XXILIB    08252103493D 0   0.00000     0.00000

 40 43  0     1  0            999 V2000
   -6.2975    4.2853   12.9873 F   0  0  0  0  0  1           0  0  0
   -8.7339    4.1085   14.1135 F   0  0  0  0  0  1           0  0  0
    0.0000    0.0000    0.0000 O   0  0  0  0  0  2           0  0  0
   -5.2025    0.1477   10.1842 O   0  0  0  0  0  2           0  0  0
    3.8869   -1.8736   -4.9356 O   0  0  0  0  0  2           0  0  0
   -2.6923    0.6685    9.2221 N   0  0  0  0  0  3           0  0  0
   -2.8718    0.7461    7.8912 N   0  0  0  0  0  3           0  0  0
   -3.7632    0.6095    5.0671 N   0  0  0  0  0  3           0  0  0
   -3.6577    1.2166    2.7497 N   0  0  0  0  0  3           0  0  0
   -2.0339   -0.6633    6.1046 N   0  0  0  0  0  3           0  0  0
   -5.2897    2.1621   11.3420 N   0  0  0  0  0  3           0  0  0
    4.2453   -0.4424   -1.4276 N   0  0  1  0  0  3           0  0  0
   -7.0329    3.1877   12.7596 C   0  0  0  0  0  4           0  0  0
   -8.2934    3.1039   13.3434 C   0  0  0  0  0  4           0  0  0
   -0.5871    0.0000    1.2340 C   0  0  0  0  0  4           0  0  0
   -4.2364    1.1960    3.9589 C   0  0  0  0  0  4           0  0  0
   -2.1769   -0.2953    7.4052 C   0  0  0  0  0  4           0  0  0
   -2.5791   -0.0424    4.9552 C   0  0  0  0  0  4           0  0  0
   -2.4757    0.5970    2.6402 C   0  0  0  0  0  4           0  0  0
   -1.9169   -0.3811    9.6129 C   0  0  0  0  0  4           0  0  0
   -6.5554    2.1468   11.9584 C   0  0  0  0  0  4           0  0  0
   -1.8633   -0.0584    3.7308 C   0  0  0  0  0  4           0  0  0
   -9.1009    1.9913   13.1397 C   0  0  0  0  0  4           0  0  0
   -1.8319    0.6062    1.4064 C   0  0  0  0  0  4           0  0  0
    0.0304   -0.6517    2.2903 C   0  0  0  0  0  4           0  0  0
   -1.5621   -1.0287    8.4549 C   0  0  0  0  0  4           0  0  0
   -7.3688    1.0246   11.7541 C   0  0  0  0  0  4           0  0  0
   -0.6004   -0.6738    3.5319 C   0  0  0  0  0  4           0  0  0
   -8.6353    0.9485   12.3421 C   0  0  0  0  0  4           0  0  0
   -4.6919    1.2109   10.5302 C   0  0  0  0  0  4           0  0  0
    1.4279    0.0000   -0.0000 C   0  0  0  0  0  4           0  0  0
    4.2946   -0.8876   -3.9954 C   0  0  0  0  0  4           0  0  0
   -3.3158    1.6450   10.0869 C   0  0  0  0  0  4           0  0  0
    3.9193   -1.3112   -2.5616 C   0  0  0  0  0  4           0  0  0
    5.6844   -0.1899   -1.2941 C   0  0  0  0  0  4           0  0  0
    3.4548    0.7899   -1.3682 C   0  0  0  0  0  4           0  0  0
    6.6602   -1.3632   -1.0768 C   0  0  1  0  0  4           0  0  0
    1.9196    0.7208   -1.2485 C   0  0  0  0  0  4           0  0  0
    8.1115   -0.8918   -0.9625 C   0  0  0  0  0  4           0  0  0
    6.2787   -2.2133    0.1373 C   0  0  0  0  0  4           0  0  0
  1 13  1  0     0  0
  2 14  1  0     0  0
  3 15  1  0     0  0
  3 31  1  0     0  0
  4 30  2  0     0  0
  5 32  1  0     0  0
  6  7  1  0     0  0
  6 20  1  0     0  0
  6 33  1  0     0  0
  7 17  2  0     0  0
  8 16  1  0     0  0
  8 18  2  0     0  0
  9 16  2  0     0  0
  9 19  1  0     0  0
 10 17  1  0     0  0
 10 18  1  0     0  0
 11 21  1  0     0  0
 11 30  1  0     0  0
 12 34  1  0     0  0
 12 35  1  0     0  0
 12 36  1  0     0  0
 13 14  1  0     0  0
 13 21  2  0     0  0
 14 23  2  0     0  0
 15 24  2  0     0  0
 15 25  1  0     0  0
 17 26  1  0     0  0
 18 22  1  0     0  0
 19 22  2  0     0  0
 19 24  1  0     0  0
 20 26  2  0     0  0
 21 27  1  0     0  0
 22 28  1  0     0  0
 23 29  1  0     0  0
 25 28  2  0     0  0
 27 29  2  0     0  0
 30 33  1  0     0  0
 31 38  1  0     0  0
 32 34  1  0     0  0
 35 37  1  0     0  0
 36 38  1  0     0  0
 37 39  1  0     0  0
 37 40  1  0     0  0
M  END
> <standard_type>
pIC50

> <# Confs.>
25

> <canonical_smiles>
FC1=C(NC(CN2C=CC(NC3=NC=NC4=C3C=CC(OCCCN(CCO)CC(C)C)=C4)=N2)=O)C=CC=C1F

> <standard_relation>
=

> <Publication_ID>
nan

> <predicted_activity_value>
7.853871964321762

> <actual_activity_value>
8.045757490560675

> <Compound>
8

> <standard_units>
nM

> hash
5485682240152081559

$$$$
7
XXILIB    08252103493D 0   0.00000     0.00000

 40 43  0     1  0            999 V2000
   -7.1419    5.5152   11.6660 F   0  0  0  0  0  1           0  0  0
   -7.3048    8.1914   11.8817 F   0  0  0  0  0  1           0  0  0
    0.0000    0.0000    0.0000 O   0  0  0  0  0  2           0  0  0
   -3.0101    4.0774    9.0133 O   0  0  0  0  0  2           0  0  0
    5.1880   -2.8592   -2.7789 O   0  0  0  0  0  2           0  0  0
   -3.1793    1.3445    8.9904 N   0  0  0  0  0  3           0  0  0
   -3.3051    1.0447    7.6850 N   0  0  0  0  0  3           0  0  0
   -3.8906   -0.0827    5.0065 N   0  0  0  0  0  3           0  0  0
   -3.9503   -0.0071    2.6104 N   0  0  0  0  0  3           0  0  0
   -1.8295   -0.1813    6.2019 N   0  0  0  0  0  3           0  0  0
   -4.9744    4.2925   10.2386 N   0  0  0  0  0  3           0  0  0
    4.0749    0.0000   -2.9075 N   0  0  1  0  0  3           0  0  0
   -6.1870    6.2652   11.0978 C   0  0  0  0  0  4           0  0  0
   -6.2762    7.6491   11.2153 C   0  0  0  0  0  4           0  0  0
   -0.5871   -0.0000    1.2340 C   0  0  0  0  0  4           0  0  0
   -4.5194   -0.0265    3.8243 C   0  0  0  0  0  4           0  0  0
   -2.1906    0.3522    7.3987 C   0  0  0  0  0  4           0  0  0
   -2.5358   -0.1367    4.9758 C   0  0  0  0  0  4           0  0  0
   -2.6120   -0.0336    2.5753 C   0  0  0  0  0  4           0  0  0
   -2.0351    0.8695    9.5566 C   0  0  0  0  0  4           0  0  0
   -5.1243    5.6830   10.4014 C   0  0  0  0  0  4           0  0  0
   -1.8273   -0.0904    3.7480 C   0  0  0  0  0  4           0  0  0
   -5.3135    8.4762   10.6492 C   0  0  0  0  0  4           0  0  0
   -1.9786    0.0000    1.3367 C   0  0  0  0  0  4           0  0  0
    0.2022   -0.0587    2.3721 C   0  0  0  0  0  4           0  0  0
   -1.3664    0.2201    8.5480 C   0  0  0  0  0  4           0  0  0
   -4.1544    6.5167    9.8295 C   0  0  0  0  0  4           0  0  0
   -0.4141   -0.0959    3.6205 C   0  0  0  0  0  4           0  0  0
   -4.2495    7.9064    9.9538 C   0  0  0  0  0  4           0  0  0
   -3.9822    3.5831    9.5802 C   0  0  0  0  0  4           0  0  0
    1.4279   -0.0000    0.0000 C   0  0  0  0  0  4           0  0  0
    3.8469   -2.5839   -3.1637 C   0  0  0  0  0  4           0  0  0
   -4.2206    2.0944    9.6564 C   0  0  0  0  0  4           0  0  0
    3.7238   -1.1574   -3.7346 C   0  0  0  0  0  4           0  0  0
    3.8993    1.2783   -3.6060 C   0  0  0  0  0  4           0  0  0
    3.4548   -0.0000   -1.5799 C   0  0  0  0  0  4           0  0  0
    4.6872    1.5698   -4.8984 C   0  0  1  0  0  4           0  0  0
    1.9196    0.0000   -1.4417 C   0  0  0  0  0  4           0  0  0
    4.3639    2.9516   -5.4708 C   0  0  0  0  0  4           0  0  0
    6.1969    1.4145   -4.7009 C   0  0  0  0  0  4           0  0  0
  1 13  1  0     0  0
  2 14  1  0     0  0
  3 15  1  0     0  0
  3 31  1  0     0  0
  4 30  2  0     0  0
  5 32  1  0     0  0
  6  7  1  0     0  0
  6 20  1  0     0  0
  6 33  1  0     0  0
  7 17  2  0     0  0
  8 16  1  0     0  0
  8 18  2  0     0  0
  9 16  2  0     0  0
  9 19  1  0     0  0
 10 17  1  0     0  0
 10 18  1  0     0  0
 11 21  1  0     0  0
 11 30  1  0     0  0
 12 34  1  0     0  0
 12 35  1  0     0  0
 12 36  1  0     0  0
 13 14  1  0     0  0
 13 21  2  0     0  0
 14 23  2  0     0  0
 15 24  2  0     0  0
 15 25  1  0     0  0
 17 26  1  0     0  0
 18 22  1  0     0  0
 19 22  2  0     0  0
 19 24  1  0     0  0
 20 26  2  0     0  0
 21 27  1  0     0  0
 22 28  1  0     0  0
 23 29  1  0     0  0
 25 28  2  0     0  0
 27 29  2  0     0  0
 30 33  1  0     0  0
 31 38  1  0     0  0
 32 34  1  0     0  0
 35 37  1  0     0  0
 36 38  1  0     0  0
 37 39  1  0     0  0
 37 40  1  0     0  0
M  END
> <standard_type>
pIC50

> <# Confs.>
25

> <canonical_smiles>
FC1=C(NC(CN2C=CC(NC3=NC=NC4=C3C=CC(OCCCN(CCO)CC(C)C)=C4)=N2)=O)C=CC=C1F

> <standard_relation>
=

> <Publication_ID>
nan

> <predicted_activity_value>
7.853871964321762

> <actual_activity_value>
8.045757490560675

> <Compound>
8

> <standard_units>
nM

> hash
5485682240152081559

$$$$
7
XXILIB    08252103493D 0   0.00000     0.00000

 40 43  0     1  0            999 V2000
   -4.4780    5.4948   12.9335 F   0  0  0  0  0  1           0  0  0
   -3.4260    7.8397   13.7273 F   0  0  0  0  0  1           0  0  0
    0.0000    0.0000    0.0000 O   0  0  0  0  0  2           0  0  0
   -1.3088    2.9539    9.8227 O   0  0  0  0  0  2           0  0  0
   -0.9627    4.0242   -3.1916 O   0  0  0  0  0  2           0  0  0
   -2.6923    0.6685    9.2221 N   0  0  0  0  0  3           0  0  0
   -2.8718    0.7461    7.8912 N   0  0  0  0  0  3           0  0  0
   -3.7632    0.6095    5.0671 N   0  0  0  0  0  3           0  0  0
   -3.6577    1.2166    2.7497 N   0  0  0  0  0  3           0  0  0
   -2.0339   -0.6633    6.1046 N   0  0  0  0  0  3           0  0  0
   -3.0251    3.7640   11.1660 N   0  0  0  0  0  3           0  0  0
    1.8506    3.0081   -2.4965 N   0  0  1  0  0  3           0  0  0
   -3.2592    5.8353   12.4908 C   0  0  0  0  0  4           0  0  0
   -2.7200    7.0487   12.9074 C   0  0  0  0  0  4           0  0  0
   -0.5871    0.0000    1.2340 C   0  0  0  0  0  4           0  0  0
   -4.2364    1.1960    3.9589 C   0  0  0  0  0  4           0  0  0
   -2.1769   -0.2953    7.4052 C   0  0  0  0  0  4           0  0  0
   -2.5791   -0.0424    4.9552 C   0  0  0  0  0  4           0  0  0
   -2.4757    0.5970    2.6402 C   0  0  0  0  0  4           0  0  0
   -1.9169   -0.3811    9.6129 C   0  0  0  0  0  4           0  0  0
   -2.5393    5.0008   11.6313 C   0  0  0  0  0  4           0  0  0
   -1.8633   -0.0584    3.7308 C   0  0  0  0  0  4           0  0  0
   -1.4595    7.4520   12.4829 C   0  0  0  0  0  4           0  0  0
   -1.8319    0.6062    1.4064 C   0  0  0  0  0  4           0  0  0
    0.0304   -0.6517    2.2903 C   0  0  0  0  0  4           0  0  0
   -1.5621   -1.0287    8.4549 C   0  0  0  0  0  4           0  0  0
   -1.2692    5.4078   11.2023 C   0  0  0  0  0  4           0  0  0
   -0.6004   -0.6738    3.5319 C   0  0  0  0  0  4           0  0  0
   -0.7329    6.6275   11.6270 C   0  0  0  0  0  4           0  0  0
   -2.4274    2.8430   10.3200 C   0  0  0  0  0  4           0  0  0
    1.4279   -0.0000   -0.0000 C   0  0  0  0  0  4           0  0  0
   -0.1585    4.6408   -2.1939 C   0  0  0  0  0  4           0  0  0
   -3.3158    1.6450   10.0869 C   0  0  0  0  0  4           0  0  0
    1.3374    4.3800   -2.4591 C   0  0  0  0  0  4           0  0  0
    3.2925    2.9424   -2.7600 C   0  0  0  0  0  4           0  0  0
    1.4553    2.1872   -1.3490 C   0  0  0  0  0  4           0  0  0
    3.8691    3.5253   -4.0653 C   0  0  1  0  0  4           0  0  0
    1.9196    0.7208   -1.2485 C   0  0  0  0  0  4           0  0  0
    5.3878    3.3580   -4.1493 C   0  0  0  0  0  4           0  0  0
    3.1981    2.9337   -5.3070 C   0  0  0  0  0  4           0  0  0
  1 13  1  0     0  0
  2 14  1  0     0  0
  3 15  1  0     0  0
  3 31  1  0     0  0
  4 30  2  0     0  0
  5 32  1  0     0  0
  6  7  1  0     0  0
  6 20  1  0     0  0
  6 33  1  0     0  0
  7 17  2  0     0  0
  8 16  1  0     0  0
  8 18  2  0     0  0
  9 16  2  0     0  0
  9 19  1  0     0  0
 10 17  1  0     0  0
 10 18  1  0     0  0
 11 21  1  0     0  0
 11 30  1  0     0  0
 12 34  1  0     0  0
 12 35  1  0     0  0
 12 36  1  0     0  0
 13 14  1  0     0  0
 13 21  2  0     0  0
 14 23  2  0     0  0
 15 24  2  0     0  0
 15 25  1  0     0  0
 17 26  1  0     0  0
 18 22  1  0     0  0
 19 22  2  0     0  0
 19 24  1  0     0  0
 20 26  2  0     0  0
 21 27  1  0     0  0
 22 28  1  0     0  0
 23 29  1  0     0  0
 25 28  2  0     0  0
 27 29  2  0     0  0
 30 33  1  0     0  0
 31 38  1  0     0  0
 32 34  1  0     0  0
 35 37  1  0     0  0
 36 38  1  0     0  0
 37 39  1  0     0  0
 37 40  1  0     0  0
M  END
> <standard_type>
pIC50

> <# Confs.>
25

> <canonical_smiles>
FC1=C(NC(CN2C=CC(NC3=NC=NC4=C3C=CC(OCCCN(CCO)CC(C)C)=C4)=N2)=O)C=CC=C1F

> <standard_relation>
=

> <Publication_ID>
nan

> <predicted_activity_value>
7.853871964321762

> <actual_activity_value>
8.045757490560675

> <Compound>
8

> <standard_units>
nM

> hash
5485682240152081559

$$$$
7
XXILIB    08252103493D 0   0.00000     0.00000

 40 43  0     1  0            999 V2000
   -3.9366    0.3792   14.8325 F   0  0  0  0  0  1           0  0  0
   -2.8857   -1.1158   16.8063 F   0  0  0  0  0  1           0  0  0
    0.0000    0.0000    0.0000 O   0  0  0  0  0  2           0  0  0
   -3.7064   -2.0142   10.3165 O   0  0  0  0  0  2           0  0  0
   -0.9344   -3.1918   -3.7773 O   0  0  0  0  0  2           0  0  0
   -4.8346   -0.2221    8.5805 N   0  0  0  0  0  3           0  0  0
   -3.8340    0.0694    7.7298 N   0  0  0  0  0  3           0  0  0
   -1.6325    0.7528    6.0809 N   0  0  0  0  0  3           0  0  0
    0.1673    1.2290    4.5696 N   0  0  0  0  0  3           0  0  0
   -3.6175   -0.3492    5.3512 N   0  0  0  0  0  3           0  0  0
   -3.9920   -0.5920   12.1336 N   0  0  0  0  0  3           0  0  0
    1.8506   -3.0081   -2.4965 N   0  0  1  0  0  3           0  0  0
   -3.4446   -0.8306   14.5302 C   0  0  0  0  0  4           0  0  0
   -2.9046   -1.5997   15.5566 C   0  0  0  0  0  4           0  0  0
   -0.5871   -0.0000    1.2340 C   0  0  0  0  0  4           0  0  0
   -0.4234    1.2419    5.7731 C   0  0  0  0  0  4           0  0  0
   -4.2648   -0.3946    6.5455 C   0  0  0  0  0  4           0  0  0
   -2.3414    0.1944    5.0683 C   0  0  0  0  0  4           0  0  0
   -0.5172    0.6552    3.5720 C   0  0  0  0  0  4           0  0  0
   -5.8920   -0.8481    7.9929 C   0  0  0  0  0  4           0  0  0
   -3.4671   -1.3173   13.2202 C   0  0  0  0  0  4           0  0  0
   -1.8010    0.0982    3.7605 C   0  0  0  0  0  4           0  0  0
   -2.3829   -2.8626   15.3025 C   0  0  0  0  0  4           0  0  0
    0.0643    0.6062    2.3086 C   0  0  0  0  0  4           0  0  0
   -1.8493   -0.5501    1.3960 C   0  0  0  0  0  4           0  0  0
   -5.5539   -0.9784    6.6681 C   0  0  0  0  0  4           0  0  0
   -2.9400   -2.5898   12.9637 C   0  0  0  0  0  4           0  0  0
   -2.4483   -0.5077    2.6526 C   0  0  0  0  0  4           0  0  0
   -2.4011   -3.3579   14.0007 C   0  0  0  0  0  4           0  0  0
   -4.0792   -0.9457   10.7963 C   0  0  0  0  0  4           0  0  0
    1.4279   -0.0000    0.0000 C   0  0  0  0  0  4           0  0  0
   -0.0715   -2.0824   -3.9940 C   0  0  0  0  0  4           0  0  0
   -4.7199    0.1460    9.9739 C   0  0  0  0  0  4           0  0  0
    1.4017   -2.4877   -3.7906 C   0  0  0  0  0  4           0  0  0
    3.2789   -3.3436   -2.4777 C   0  0  0  0  0  4           0  0  0
    1.4553   -2.1872   -1.3490 C   0  0  0  0  0  4           0  0  0
    3.8393   -4.4012   -3.4490 C   0  0  1  0  0  4           0  0  0
    1.9196   -0.7208   -1.2485 C   0  0  0  0  0  4           0  0  0
    5.3454   -4.6057   -3.2715 C   0  0  0  0  0  4           0  0  0
    3.1027   -5.7378   -3.3341 C   0  0  0  0  0  4           0  0  0
  1 13  1  0     0  0
  2 14  1  0     0  0
  3 15  1  0     0  0
  3 31  1  0     0  0
  4 30  2  0     0  0
  5 32  1  0     0  0
  6  7  1  0     0  0
  6 20  1  0     0  0
  6 33  1  0     0  0
  7 17  2  0     0  0
  8 16  1  0     0  0
  8 18  2  0     0  0
  9 16  2  0     0  0
  9 19  1  0     0  0
 10 17  1  0     0  0
 10 18  1  0     0  0
 11 21  1  0     0  0
 11 30  1  0     0  0
 12 34  1  0     0  0
 12 35  1  0     0  0
 12 36  1  0     0  0
 13 14  1  0     0  0
 13 21  2  0     0  0
 14 23  2  0     0  0
 15 24  2  0     0  0
 15 25  1  0     0  0
 17 26  1  0     0  0
 18 22  1  0     0  0
 19 22  2  0     0  0
 19 24  1  0     0  0
 20 26  2  0     0  0
 21 27  1  0     0  0
 22 28  1  0     0  0
 23 29  1  0     0  0
 25 28  2  0     0  0
 27 29  2  0     0  0
 30 33  1  0     0  0
 31 38  1  0     0  0
 32 34  1  0     0  0
 35 37  1  0     0  0
 36 38  1  0     0  0
 37 39  1  0     0  0
 37 40  1  0     0  0
M  END
> <standard_type>
pIC50

> <# Confs.>
25

> <canonical_smiles>
FC1=C(NC(CN2C=CC(NC3=NC=NC4=C3C=CC(OCCCN(CCO)CC(C)C)=C4)=N2)=O)C=CC=C1F

> <standard_relation>
=

> <Publication_ID>
nan

> <predicted_activity_value>
7.853871964321762

> <actual_activity_value>
8.045757490560675

> <Compound>
8

> <standard_units>
nM

> hash
5485682240152081559

$$$$
6
XXILIB    08252103493D 0   0.00000     0.00000

 43 47  0     1  0            999 V2000
   -7.0859    0.4569    2.5689 S   0  0  0  0  0  2           0  0  0
    3.8231    1.4557   -4.3729 P   0  0  2  0  0  5           0  0  0
  -15.2028    0.7735   -0.6453 F   0  0  0  0  0  1           0  0  0
    3.8478    2.4030   -5.5369 O   0  0  0  0  0  2           0  0  0
    3.4904    2.1264   -2.9389 O   0  0  0  0  0  2           0  0  0
    5.2118    0.6676   -4.1115 O   0  0  0  0  0  2           0  0  0
    2.7382    0.2622   -4.4851 O   0  0  0  0  0  2           0  0  0
   -0.0206   -0.0086    2.3507 O   0  0  0  0  0  2           0  0  0
  -11.3494    2.4043    1.3981 O   0  0  0  0  0  2           0  0  0
   -6.9561    1.3095    0.1462 N   0  0  0  0  0  3           0  0  0
   -4.8122    0.0907   -1.5006 N   0  0  0  0  0  3           0  0  0
   -2.6438    0.0749   -2.5208 N   0  0  0  0  0  3           0  0  0
   -5.0674    0.0335    0.8730 N   0  0  0  0  0  3           0  0  0
  -11.3372    0.2147    2.1755 N   0  0  0  0  0  3           0  0  0
    3.9314    3.6673   -1.1204 N   0  0  2  0  0  3           0  0  0
   -6.2835    0.6118    1.0418 C   0  0  0  0  0  4           0  0  0
   -8.3940    1.3972    1.9888 C   0  0  0  0  0  4           0  0  0
  -14.4423   -0.0001    0.1422 C   0  0  0  0  0  4           0  0  0
   -0.7396    0.0000    1.1890 C   0  0  0  0  0  4           0  0  0
   -3.9835    0.1031   -2.5532 C   0  0  0  0  0  4           0  0  0
   -4.2385    0.0299   -0.2728 C   0  0  0  0  0  4           0  0  0
   -2.0729    0.0407   -1.3096 C   0  0  0  0  0  4           0  0  0
   -8.1475    1.7553    0.6808 C   0  0  0  0  0  4           0  0  0
  -12.5050   -0.2664    1.5535 C   0  0  0  0  0  4           0  0  0
   -2.8269    0.0244   -0.1214 C   0  0  0  0  0  4           0  0  0
    0.0000    0.0000    0.0000 C   0  0  0  0  0  4           0  0  0
  -13.2977    0.5380    0.7277 C   0  0  0  0  0  4           0  0  0
  -14.8113   -1.3236    0.3612 C   0  0  0  0  0  4           0  0  0
   -2.1386    0.0113    1.1207 C   0  0  0  0  0  4           0  0  0
   -0.6840    0.0269   -1.2262 C   0  0  0  0  0  4           0  0  0
  -12.8732   -1.5993    1.7790 C   0  0  0  0  0  4           0  0  0
  -14.0224   -2.1249    1.1829 C   0  0  0  0  0  4           0  0  0
  -10.8376    1.4994    2.0565 C   0  0  0  0  0  4           0  0  0
    4.3452    3.1428   -2.4301 C   0  0  2  0  0  4           0  0  0
   -0.7940   -0.0084    3.5481 C   0  0  0  0  0  4           0  0  0
    4.6294    4.9521   -1.0032 C   0  0  0  0  0  4           0  0  0
    4.2509    2.7804    0.0000 C   0  0  0  0  0  4           0  0  0
   -9.5657    1.7117    2.8451 C   0  0  0  0  0  4           0  0  0
    1.5026    0.0000    0.0000 C   0  0  0  0  0  4           0  0  0
    4.2629    4.3793   -3.3210 C   0  0  0  0  0  4           0  0  0
    4.4783    5.5631   -2.3871 C   0  0  0  0  0  4           0  0  0
    3.6384    1.3728    0.0000 C   0  0  0  0  0  4           0  0  0
    2.1122    1.4009    0.0000 C   0  0  0  0  0  4           0  0  0
  1 16  1  0     0  0
  1 17  1  0     0  0
  2  4  2  0     0  0
  2  5  1  0     0  0
  2  6  1  0     0  0
  2  7  1  0     0  0
  3 18  1  0     0  0
  5 34  1  0     0  0
  8 19  1  0     0  0
  8 35  1  0     0  0
  9 33  2  0     0  0
 10 16  2  0     0  0
 10 23  1  0     0  0
 11 20  1  0     0  0
 11 21  2  0     0  0
 12 20  2  0     0  0
 12 22  1  0     0  0
 13 16  1  0     0  0
 13 21  1  0     0  0
 14 24  1  0     0  0
 14 33  1  0     0  0
 15 34  1  0     0  0
 15 36  1  0     0  0
 15 37  1  0     0  0
 17 23  2  0     0  0
 17 38  1  0     0  0
 18 27  1  0     0  0
 18 28  2  0     0  0
 19 26  2  0     0  0
 19 29  1  0     0  0
 21 25  1  0     0  0
 22 25  1  0     0  0
 22 30  2  0     0  0
 24 27  2  0     0  0
 24 31  1  0     0  0
 25 29  2  0     0  0
 26 30  1  0     0  0
 26 39  1  0     0  0
 28 32  1  0     0  0
 31 32  2  0     0  0
 33 38  1  0     0  0
 34 40  1  0     0  0
 36 41  1  0     0  0
 37 42  1  0     0  0
 39 43  1  0     0  0
 40 41  1  0     0  0
 42 43  1  0     0  0
M  END
> <standard_type>
pIC50

> <# Confs.>
25

> <canonical_smiles>
FC1=CC=CC(NC(CC2=CN=C(NC3=NC=NC4=CC(CCCCN5[C@@H](OP(O)(O)=O)CCC5)=C(OC)C=C34)S2)=O)=C1

> <standard_relation>
=

> <Publication_ID>
nan

> <predicted_activity_value>
8.09151498112135

> <actual_activity_value>
8.045757490560675

> <Compound>
7

> <standard_units>
nM

> hash
12078469371866150626

$$$$
6
XXILIB    08252103493D 0   0.00000     0.00000

 43 47  0     1  0            999 V2000
   -7.0859    0.4569    2.5689 S   0  0  0  0  0  2           0  0  0
    3.8231    1.4557   -4.3729 P   0  0  2  0  0  5           0  0  0
  -14.2086   -3.0592    2.1221 F   0  0  0  0  0  1           0  0  0
    3.8478    2.4030   -5.5369 O   0  0  0  0  0  2           0  0  0
    3.4904    2.1264   -2.9389 O   0  0  0  0  0  2           0  0  0
    5.2118    0.6676   -4.1115 O   0  0  0  0  0  2           0  0  0
    2.7382    0.2622   -4.4851 O   0  0  0  0  0  2           0  0  0
   -0.0206   -0.0086    2.3507 O   0  0  0  0  0  2           0  0  0
  -11.4924    0.7113    1.8240 O   0  0  0  0  0  2           0  0  0
   -6.9561    1.3095    0.1462 N   0  0  0  0  0  3           0  0  0
   -4.8122    0.0907   -1.5006 N   0  0  0  0  0  3           0  0  0
   -2.6438    0.0749   -2.5208 N   0  0  0  0  0  3           0  0  0
   -5.0674    0.0335    0.8730 N   0  0  0  0  0  3           0  0  0
  -10.4687   -0.3998    3.5894 N   0  0  0  0  0  3           0  0  0
    3.9314    3.6673   -1.1204 N   0  0  2  0  0  3           0  0  0
   -6.2835    0.6118    1.0418 C   0  0  0  0  0  4           0  0  0
   -8.3940    1.3972    1.9888 C   0  0  0  0  0  4           0  0  0
  -13.1659   -2.8759    2.9445 C   0  0  0  0  0  4           0  0  0
   -0.7396    0.0000    1.1890 C   0  0  0  0  0  4           0  0  0
   -3.9835    0.1031   -2.5532 C   0  0  0  0  0  4           0  0  0
   -4.2385    0.0299   -0.2728 C   0  0  0  0  0  4           0  0  0
   -2.0729    0.0407   -1.3096 C   0  0  0  0  0  4           0  0  0
   -8.1475    1.7553    0.6808 C   0  0  0  0  0  4           0  0  0
  -11.2979   -1.5346    3.6707 C   0  0  0  0  0  4           0  0  0
   -2.8269    0.0244   -0.1214 C   0  0  0  0  0  4           0  0  0
    0.0000    0.0000    0.0000 C   0  0  0  0  0  4           0  0  0
  -12.3840   -1.7300    2.8106 C   0  0  0  0  0  4           0  0  0
  -12.8861   -3.8315    3.9162 C   0  0  0  0  0  4           0  0  0
   -2.1386    0.0113    1.1207 C   0  0  0  0  0  4           0  0  0
   -0.6840    0.0269   -1.2262 C   0  0  0  0  0  4           0  0  0
  -11.0130   -2.4928    4.6523 C   0  0  0  0  0  4           0  0  0
  -11.8049   -3.6378    4.7724 C   0  0  0  0  0  4           0  0  0
  -10.6131    0.6341    2.6814 C   0  0  0  0  0  4           0  0  0
    4.3452    3.1428   -2.4301 C   0  0  2  0  0  4           0  0  0
   -0.7940   -0.0084    3.5481 C   0  0  0  0  0  4           0  0  0
    4.6294    4.9521   -1.0032 C   0  0  0  0  0  4           0  0  0
    4.2509    2.7804    0.0000 C   0  0  0  0  0  4           0  0  0
   -9.5657    1.7117    2.8451 C   0  0  0  0  0  4           0  0  0
    1.5026    0.0000    0.0000 C   0  0  0  0  0  4           0  0  0
    4.2629    4.3793   -3.3210 C   0  0  0  0  0  4           0  0  0
    4.4783    5.5631   -2.3871 C   0  0  0  0  0  4           0  0  0
    3.6384    1.3728    0.0000 C   0  0  0  0  0  4           0  0  0
    2.1122    1.4009    0.0000 C   0  0  0  0  0  4           0  0  0
  1 16  1  0     0  0
  1 17  1  0     0  0
  2  4  2  0     0  0
  2  5  1  0     0  0
  2  6  1  0     0  0
  2  7  1  0     0  0
  3 18  1  0     0  0
  5 34  1  0     0  0
  8 19  1  0     0  0
  8 35  1  0     0  0
  9 33  2  0     0  0
 10 16  2  0     0  0
 10 23  1  0     0  0
 11 20  1  0     0  0
 11 21  2  0     0  0
 12 20  2  0     0  0
 12 22  1  0     0  0
 13 16  1  0     0  0
 13 21  1  0     0  0
 14 24  1  0     0  0
 14 33  1  0     0  0
 15 34  1  0     0  0
 15 36  1  0     0  0
 15 37  1  0     0  0
 17 23  2  0     0  0
 17 38  1  0     0  0
 18 27  1  0     0  0
 18 28  2  0     0  0
 19 26  2  0     0  0
 19 29  1  0     0  0
 21 25  1  0     0  0
 22 25  1  0     0  0
 22 30  2  0     0  0
 24 27  2  0     0  0
 24 31  1  0     0  0
 25 29  2  0     0  0
 26 30  1  0     0  0
 26 39  1  0     0  0
 28 32  1  0     0  0
 31 32  2  0     0  0
 33 38  1  0     0  0
 34 40  1  0     0  0
 36 41  1  0     0  0
 37 42  1  0     0  0
 39 43  1  0     0  0
 40 41  1  0     0  0
 42 43  1  0     0  0
M  END
> <standard_type>
pIC50

> <# Confs.>
25

> <canonical_smiles>
FC1=CC=CC(NC(CC2=CN=C(NC3=NC=NC4=CC(CCCCN5[C@@H](OP(O)(O)=O)CCC5)=C(OC)C=C34)S2)=O)=C1

> <standard_relation>
=

> <Publication_ID>
nan

> <predicted_activity_value>
8.09151498112135

> <actual_activity_value>
8.045757490560675

> <Compound>
7

> <standard_units>
nM

> hash
12078469371866150626

$$$$
6
XXILIB    08252103493D 0   0.00000     0.00000

 43 47  0     1  0            999 V2000
   -7.0859    0.4569    2.5689 S   0  0  0  0  0  2           0  0  0
    3.8231    1.4557   -4.3729 P   0  0  2  0  0  5           0  0  0
   -8.4522    7.4295    6.1476 F   0  0  0  0  0  1           0  0  0
    3.8478    2.4030   -5.5369 O   0  0  0  0  0  2           0  0  0
    3.4904    2.1264   -2.9389 O   0  0  0  0  0  2           0  0  0
    5.2118    0.6676   -4.1115 O   0  0  0  0  0  2           0  0  0
    2.7382    0.2622   -4.4851 O   0  0  0  0  0  2           0  0  0
   -0.0206   -0.0086    2.3507 O   0  0  0  0  0  2           0  0  0
   -8.7747    3.0167    4.6962 O   0  0  0  0  0  2           0  0  0
   -6.9561    1.3095    0.1462 N   0  0  0  0  0  3           0  0  0
   -4.8122    0.0907   -1.5006 N   0  0  0  0  0  3           0  0  0
   -2.6438    0.0749   -2.5208 N   0  0  0  0  0  3           0  0  0
   -5.0674    0.0335    0.8730 N   0  0  0  0  0  3           0  0  0
   -9.7590    4.1173    2.9021 N   0  0  0  0  0  3           0  0  0
    3.9314    3.6673   -1.1204 N   0  0  2  0  0  3           0  0  0
   -6.2835    0.6118    1.0418 C   0  0  0  0  0  4           0  0  0
   -8.3940    1.3972    1.9888 C   0  0  0  0  0  4           0  0  0
   -9.0061    7.1151    4.9680 C   0  0  0  0  0  4           0  0  0
   -0.7396    0.0000    1.1890 C   0  0  0  0  0  4           0  0  0
   -3.9835    0.1031   -2.5532 C   0  0  0  0  0  4           0  0  0
   -4.2385    0.0299   -0.2728 C   0  0  0  0  0  4           0  0  0
   -2.0729    0.0407   -1.3096 C   0  0  0  0  0  4           0  0  0
   -8.1475    1.7553    0.6808 C   0  0  0  0  0  4           0  0  0
   -9.6571    5.4472    3.3524 C   0  0  0  0  0  4           0  0  0
   -2.8269    0.0244   -0.1214 C   0  0  0  0  0  4           0  0  0
    0.0000    0.0000    0.0000 C   0  0  0  0  0  4           0  0  0
   -9.0754    5.7779    4.5811 C   0  0  0  0  0  4           0  0  0
   -9.5025    8.1288    4.1546 C   0  0  0  0  0  4           0  0  0
   -2.1386    0.0113    1.1207 C   0  0  0  0  0  4           0  0  0
   -0.6840    0.0269   -1.2262 C   0  0  0  0  0  4           0  0  0
  -10.1605    6.4641    2.5303 C   0  0  0  0  0  4           0  0  0
  -10.0814    7.8002    2.9312 C   0  0  0  0  0  4           0  0  0
   -9.3136    3.0025    3.5900 C   0  0  0  0  0  4           0  0  0
    4.3452    3.1428   -2.4301 C   0  0  2  0  0  4           0  0  0
   -0.7940   -0.0084    3.5481 C   0  0  0  0  0  4           0  0  0
    4.6294    4.9521   -1.0032 C   0  0  0  0  0  4           0  0  0
    4.2509    2.7804    0.0000 C   0  0  0  0  0  4           0  0  0
   -9.5657    1.7117    2.8451 C   0  0  0  0  0  4           0  0  0
    1.5026    0.0000    0.0000 C   0  0  0  0  0  4           0  0  0
    4.2629    4.3793   -3.3210 C   0  0  0  0  0  4           0  0  0
    4.4783    5.5631   -2.3871 C   0  0  0  0  0  4           0  0  0
    3.6384    1.3728    0.0000 C   0  0  0  0  0  4           0  0  0
    2.1122    1.4009    0.0000 C   0  0  0  0  0  4           0  0  0
  1 16  1  0     0  0
  1 17  1  0     0  0
  2  4  2  0     0  0
  2  5  1  0     0  0
  2  6  1  0     0  0
  2  7  1  0     0  0
  3 18  1  0     0  0
  5 34  1  0     0  0
  8 19  1  0     0  0
  8 35  1  0     0  0
  9 33  2  0     0  0
 10 16  2  0     0  0
 10 23  1  0     0  0
 11 20  1  0     0  0
 11 21  2  0     0  0
 12 20  2  0     0  0
 12 22  1  0     0  0
 13 16  1  0     0  0
 13 21  1  0     0  0
 14 24  1  0     0  0
 14 33  1  0     0  0
 15 34  1  0     0  0
 15 36  1  0     0  0
 15 37  1  0     0  0
 17 23  2  0     0  0
 17 38  1  0     0  0
 18 27  1  0     0  0
 18 28  2  0     0  0
 19 26  2  0     0  0
 19 29  1  0     0  0
 21 25  1  0     0  0
 22 25  1  0     0  0
 22 30  2  0     0  0
 24 27  2  0     0  0
 24 31  1  0     0  0
 25 29  2  0     0  0
 26 30  1  0     0  0
 26 39  1  0     0  0
 28 32  1  0     0  0
 31 32  2  0     0  0
 33 38  1  0     0  0
 34 40  1  0     0  0
 36 41  1  0     0  0
 37 42  1  0     0  0
 39 43  1  0     0  0
 40 41  1  0     0  0
 42 43  1  0     0  0
M  END
> <standard_type>
pIC50

> <# Confs.>
25

> <canonical_smiles>
FC1=CC=CC(NC(CC2=CN=C(NC3=NC=NC4=CC(CCCCN5[C@@H](OP(O)(O)=O)CCC5)=C(OC)C=C34)S2)=O)=C1

> <standard_relation>
=

> <Publication_ID>
nan

> <predicted_activity_value>
8.09151498112135

> <actual_activity_value>
8.045757490560675

> <Compound>
7

> <standard_units>
nM

> hash
12078469371866150626

$$$$
6
XXILIB    08252103493D 0   0.00000     0.00000

 43 47  0     1  0            999 V2000
   -7.0859    0.4569    2.5689 S   0  0  0  0  0  2           0  0  0
    3.8231    1.4557   -4.3729 P   0  0  2  0  0  5           0  0  0
   -8.4449    7.4312    6.1421 F   0  0  0  0  0  1           0  0  0
    3.8478    2.4030   -5.5369 O   0  0  0  0  0  2           0  0  0
    3.4904    2.1264   -2.9389 O   0  0  0  0  0  2           0  0  0
    5.2118    0.6676   -4.1115 O   0  0  0  0  0  2           0  0  0
    2.7382    0.2622   -4.4851 O   0  0  0  0  0  2           0  0  0
   -0.0206   -0.0086    2.3507 O   0  0  0  0  0  2           0  0  0
   -9.6365    4.0936    3.1216 O   0  0  0  0  0  2           0  0  0
   -6.9561    1.3095    0.1462 N   0  0  0  0  0  3           0  0  0
   -4.8122    0.0907   -1.5006 N   0  0  0  0  0  3           0  0  0
   -2.6438    0.0749   -2.5208 N   0  0  0  0  0  3           0  0  0
   -5.0674    0.0335    0.8730 N   0  0  0  0  0  3           0  0  0
   -8.6884    2.8079    4.8088 N   0  0  0  0  0  3           0  0  0
    3.9314    3.6673   -1.1204 N   0  0  2  0  0  3           0  0  0
   -6.2835    0.6118    1.0418 C   0  0  0  0  0  4           0  0  0
   -8.3940    1.3972    1.9888 C   0  0  0  0  0  4           0  0  0
   -8.2053    6.1363    6.3931 C   0  0  0  0  0  4           0  0  0
   -0.7396    0.0000    1.1890 C   0  0  0  0  0  4           0  0  0
   -3.9835    0.1031   -2.5532 C   0  0  0  0  0  4           0  0  0
   -4.2385    0.0299   -0.2728 C   0  0  0  0  0  4           0  0  0
   -2.0729    0.0407   -1.3096 C   0  0  0  0  0  4           0  0  0
   -8.1475    1.7553    0.6808 C   0  0  0  0  0  4           0  0  0
   -8.3315    3.8260    5.7133 C   0  0  0  0  0  4           0  0  0
   -2.8269    0.0244   -0.1214 C   0  0  0  0  0  4           0  0  0
    0.0000    0.0000    0.0000 C   0  0  0  0  0  4           0  0  0
   -8.5845    5.1776    5.4553 C   0  0  0  0  0  4           0  0  0
   -7.5814    5.7753    7.5831 C   0  0  0  0  0  4           0  0  0
   -2.1386    0.0113    1.1207 C   0  0  0  0  0  4           0  0  0
   -0.6840    0.0269   -1.2262 C   0  0  0  0  0  4           0  0  0
   -7.7016    3.4571    6.9092 C   0  0  0  0  0  4           0  0  0
   -7.3296    4.4299    7.8406 C   0  0  0  0  0  4           0  0  0
   -9.3136    3.0025    3.5900 C   0  0  0  0  0  4           0  0  0
    4.3452    3.1428   -2.4301 C   0  0  2  0  0  4           0  0  0
   -0.7940   -0.0084    3.5481 C   0  0  0  0  0  4           0  0  0
    4.6294    4.9521   -1.0032 C   0  0  0  0  0  4           0  0  0
    4.2509    2.7804    0.0000 C   0  0  0  0  0  4           0  0  0
   -9.5657    1.7117    2.8451 C   0  0  0  0  0  4           0  0  0
    1.5026    0.0000    0.0000 C   0  0  0  0  0  4           0  0  0
    4.2629    4.3793   -3.3210 C   0  0  0  0  0  4           0  0  0
    4.4783    5.5631   -2.3871 C   0  0  0  0  0  4           0  0  0
    3.6384    1.3728    0.0000 C   0  0  0  0  0  4           0  0  0
    2.1122    1.4009    0.0000 C   0  0  0  0  0  4           0  0  0
  1 16  1  0     0  0
  1 17  1  0     0  0
  2  4  2  0     0  0
  2  5  1  0     0  0
  2  6  1  0     0  0
  2  7  1  0     0  0
  3 18  1  0     0  0
  5 34  1  0     0  0
  8 19  1  0     0  0
  8 35  1  0     0  0
  9 33  2  0     0  0
 10 16  2  0     0  0
 10 23  1  0     0  0
 11 20  1  0     0  0
 11 21  2  0     0  0
 12 20  2  0     0  0
 12 22  1  0     0  0
 13 16  1  0     0  0
 13 21  1  0     0  0
 14 24  1  0     0  0
 14 33  1  0     0  0
 15 34  1  0     0  0
 15 36  1  0     0  0
 15 37  1  0     0  0
 17 23  2  0     0  0
 17 38  1  0     0  0
 18 27  1  0     0  0
 18 28  2  0     0  0
 19 26  2  0     0  0
 19 29  1  0     0  0
 21 25  1  0     0  0
 22 25  1  0     0  0
 22 30  2  0     0  0
 24 27  2  0     0  0
 24 31  1  0     0  0
 25 29  2  0     0  0
 26 30  1  0     0  0
 26 39  1  0     0  0
 28 32  1  0     0  0
 31 32  2  0     0  0
 33 38  1  0     0  0
 34 40  1  0     0  0
 36 41  1  0     0  0
 37 42  1  0     0  0
 39 43  1  0     0  0
 40 41  1  0     0  0
 42 43  1  0     0  0
M  END
> <standard_type>
pIC50

> <# Confs.>
25

> <canonical_smiles>
FC1=CC=CC(NC(CC2=CN=C(NC3=NC=NC4=CC(CCCCN5[C@@H](OP(O)(O)=O)CCC5)=C(OC)C=C34)S2)=O)=C1

> <standard_relation>
=

> <Publication_ID>
nan

> <predicted_activity_value>
8.09151498112135

> <actual_activity_value>
8.045757490560675

> <Compound>
7

> <standard_units>
nM

> hash
12078469371866150626

$$$$
6
XXILIB    08252103493D 0   0.00000     0.00000

 43 47  0     1  0            999 V2000
   -7.0859    0.4569    2.5689 S   0  0  0  0  0  2           0  0  0
    3.8231    1.4557   -4.3729 P   0  0  2  0  0  5           0  0  0
  -11.1268    8.1907    2.1937 F   0  0  0  0  0  1           0  0  0
    3.8478    2.4030   -5.5369 O   0  0  0  0  0  2           0  0  0
    3.4904    2.1264   -2.9389 O   0  0  0  0  0  2           0  0  0
    5.2118    0.6676   -4.1115 O   0  0  0  0  0  2           0  0  0
    2.7382    0.2622   -4.4851 O   0  0  0  0  0  2           0  0  0
   -0.0206   -0.0086    2.3507 O   0  0  0  0  0  2           0  0  0
  -10.7120    3.5660    1.8437 O   0  0  0  0  0  2           0  0  0
   -6.9561    1.3095    0.1462 N   0  0  0  0  0  3           0  0  0
   -4.8122    0.0907   -1.5006 N   0  0  0  0  0  3           0  0  0
   -2.6438    0.0749   -2.5208 N   0  0  0  0  0  3           0  0  0
   -5.0674    0.0335    0.8730 N   0  0  0  0  0  3           0  0  0
   -9.2537    3.9819    3.6042 N   0  0  0  0  0  3           0  0  0
    3.9314    3.6673   -1.1204 N   0  0  2  0  0  3           0  0  0
   -6.2835    0.6118    1.0418 C   0  0  0  0  0  4           0  0  0
   -8.3940    1.3972    1.9888 C   0  0  0  0  0  4           0  0  0
  -10.3182    7.4931    3.0040 C   0  0  0  0  0  4           0  0  0
   -0.7396    0.0000    1.1890 C   0  0  0  0  0  4           0  0  0
   -3.9835    0.1031   -2.5532 C   0  0  0  0  0  4           0  0  0
   -4.2385    0.0299   -0.2728 C   0  0  0  0  0  4           0  0  0
   -2.0729    0.0407   -1.3096 C   0  0  0  0  0  4           0  0  0
   -8.1475    1.7553    0.6808 C   0  0  0  0  0  4           0  0  0
   -9.3864    5.3802    3.6993 C   0  0  0  0  0  4           0  0  0
   -2.8269    0.0244   -0.1214 C   0  0  0  0  0  4           0  0  0
    0.0000    0.0000    0.0000 C   0  0  0  0  0  4           0  0  0
  -10.2330    6.1097    2.8575 C   0  0  0  0  0  4           0  0  0
   -9.5788    8.1635    3.9734 C   0  0  0  0  0  4           0  0  0
   -2.1386    0.0113    1.1207 C   0  0  0  0  0  4           0  0  0
   -0.6840    0.0269   -1.2262 C   0  0  0  0  0  4           0  0  0
   -8.6380    6.0506    4.6758 C   0  0  0  0  0  4           0  0  0
   -8.7361    7.4377    4.8118 C   0  0  0  0  0  4           0  0  0
   -9.9187    3.1741    2.6989 C   0  0  0  0  0  4           0  0  0
    4.3452    3.1428   -2.4301 C   0  0  2  0  0  4           0  0  0
   -0.7940   -0.0084    3.5481 C   0  0  0  0  0  4           0  0  0
    4.6294    4.9521   -1.0032 C   0  0  0  0  0  4           0  0  0
    4.2509    2.7804    0.0000 C   0  0  0  0  0  4           0  0  0
   -9.5657    1.7117    2.8451 C   0  0  0  0  0  4           0  0  0
    1.5026    0.0000    0.0000 C   0  0  0  0  0  4           0  0  0
    4.2629    4.3793   -3.3210 C   0  0  0  0  0  4           0  0  0
    4.4783    5.5631   -2.3871 C   0  0  0  0  0  4           0  0  0
    3.6384    1.3728    0.0000 C   0  0  0  0  0  4           0  0  0
    2.1122    1.4009    0.0000 C   0  0  0  0  0  4           0  0  0
  1 16  1  0     0  0
  1 17  1  0     0  0
  2  4  2  0     0  0
  2  5  1  0     0  0
  2  6  1  0     0  0
  2  7  1  0     0  0
  3 18  1  0     0  0
  5 34  1  0     0  0
  8 19  1  0     0  0
  8 35  1  0     0  0
  9 33  2  0     0  0
 10 16  2  0     0  0
 10 23  1  0     0  0
 11 20  1  0     0  0
 11 21  2  0     0  0
 12 20  2  0     0  0
 12 22  1  0     0  0
 13 16  1  0     0  0
 13 21  1  0     0  0
 14 24  1  0     0  0
 14 33  1  0     0  0
 15 34  1  0     0  0
 15 36  1  0     0  0
 15 37  1  0     0  0
 17 23  2  0     0  0
 17 38  1  0     0  0
 18 27  1  0     0  0
 18 28  2  0     0  0
 19 26  2  0     0  0
 19 29  1  0     0  0
 21 25  1  0     0  0
 22 25  1  0     0  0
 22 30  2  0     0  0
 24 27  2  0     0  0
 24 31  1  0     0  0
 25 29  2  0     0  0
 26 30  1  0     0  0
 26 39  1  0     0  0
 28 32  1  0     0  0
 31 32  2  0     0  0
 33 38  1  0     0  0
 34 40  1  0     0  0
 36 41  1  0     0  0
 37 42  1  0     0  0
 39 43  1  0     0  0
 40 41  1  0     0  0
 42 43  1  0     0  0
M  END
> <standard_type>
pIC50

> <# Confs.>
25

> <canonical_smiles>
FC1=CC=CC(NC(CC2=CN=C(NC3=NC=NC4=CC(CCCCN5[C@@H](OP(O)(O)=O)CCC5)=C(OC)C=C34)S2)=O)=C1

> <standard_relation>
=

> <Publication_ID>
nan

> <predicted_activity_value>
8.09151498112135

> <actual_activity_value>
8.045757490560675

> <Compound>
7

> <standard_units>
nM

> hash
12078469371866150626

$$$$
6
XXILIB    08252103493D 0   0.00000     0.00000

 43 47  0     1  0            999 V2000
   -7.0859    0.4569    2.5689 S   0  0  0  0  0  2           0  0  0
    4.5241   -7.3603    0.1011 P   0  0  2  0  0  5           0  0  0
  -15.2028    0.7735   -0.6453 F   0  0  0  0  0  1           0  0  0
    4.5386   -8.2216   -1.1281 O   0  0  0  0  0  2           0  0  0
    3.9346   -5.8679   -0.1039 O   0  0  0  0  0  2           0  0  0
    5.9764   -7.1076    0.7682 O   0  0  0  0  0  2           0  0  0
    3.6496   -7.9390    1.3317 O   0  0  0  0  0  2           0  0  0
   -0.0206   -0.0086    2.3507 O   0  0  0  0  0  2           0  0  0
  -11.3494    2.4043    1.3981 O   0  0  0  0  0  2           0  0  0
   -6.9561    1.3095    0.1462 N   0  0  0  0  0  3           0  0  0
   -4.8122    0.0907   -1.5006 N   0  0  0  0  0  3           0  0  0
   -2.6438    0.0749   -2.5208 N   0  0  0  0  0  3           0  0  0
   -5.0674    0.0335    0.8730 N   0  0  0  0  0  3           0  0  0
  -11.3372    0.2147    2.1755 N   0  0  0  0  0  3           0  0  0
    3.9314   -3.6673   -1.1204 N   0  0  2  0  0  3           0  0  0
   -6.2835    0.6118    1.0418 C   0  0  0  0  0  4           0  0  0
   -8.3940    1.3972    1.9888 C   0  0  0  0  0  4           0  0  0
  -14.4423   -0.0001    0.1422 C   0  0  0  0  0  4           0  0  0
   -0.7396    0.0000    1.1890 C   0  0  0  0  0  4           0  0  0
   -3.9835    0.1031   -2.5532 C   0  0  0  0  0  4           0  0  0
   -4.2385    0.0299   -0.2728 C   0  0  0  0  0  4           0  0  0
   -2.0729    0.0407   -1.3096 C   0  0  0  0  0  4           0  0  0
   -8.1475    1.7553    0.6808 C   0  0  0  0  0  4           0  0  0
  -12.5050   -0.2664    1.5535 C   0  0  0  0  0  4           0  0  0
   -2.8269    0.0244   -0.1214 C   0  0  0  0  0  4           0  0  0
    0.0000    0.0000    0.0000 C   0  0  0  0  0  4           0  0  0
  -13.2977    0.5380    0.7277 C   0  0  0  0  0  4           0  0  0
  -14.8113   -1.3236    0.3612 C   0  0  0  0  0  4           0  0  0
   -2.1386    0.0113    1.1207 C   0  0  0  0  0  4           0  0  0
   -0.6840    0.0269   -1.2262 C   0  0  0  0  0  4           0  0  0
  -12.8732   -1.5993    1.7790 C   0  0  0  0  0  4           0  0  0
  -14.0224   -2.1249    1.1829 C   0  0  0  0  0  4           0  0  0
  -10.8376    1.4994    2.0565 C   0  0  0  0  0  4           0  0  0
    4.5646   -4.9911   -1.0296 C   0  0  2  0  0  4           0  0  0
   -0.7940   -0.0084    3.5481 C   0  0  0  0  0  4           0  0  0
    4.4116   -3.1180   -2.3929 C   0  0  0  0  0  4           0  0  0
    4.2509   -2.7804    0.0000 C   0  0  0  0  0  4           0  0  0
   -9.5657    1.7117    2.8451 C   0  0  0  0  0  4           0  0  0
    1.5026    0.0000    0.0000 C   0  0  0  0  0  4           0  0  0
    4.3999   -5.5329   -2.4469 C   0  0  0  0  0  4           0  0  0
    4.3286   -4.3026   -3.3422 C   0  0  0  0  0  4           0  0  0
    3.6384   -1.3728    0.0000 C   0  0  0  0  0  4           0  0  0
    2.1122   -1.4009    0.0000 C   0  0  0  0  0  4           0  0  0
  1 16  1  0     0  0
  1 17  1  0     0  0
  2  4  2  0     0  0
  2  5  1  0     0  0
  2  6  1  0     0  0
  2  7  1  0     0  0
  3 18  1  0     0  0
  5 34  1  0     0  0
  8 19  1  0     0  0
  8 35  1  0     0  0
  9 33  2  0     0  0
 10 16  2  0     0  0
 10 23  1  0     0  0
 11 20  1  0     0  0
 11 21  2  0     0  0
 12 20  2  0     0  0
 12 22  1  0     0  0
 13 16  1  0     0  0
 13 21  1  0     0  0
 14 24  1  0     0  0
 14 33  1  0     0  0
 15 34  1  0     0  0
 15 36  1  0     0  0
 15 37  1  0     0  0
 17 23  2  0     0  0
 17 38  1  0     0  0
 18 27  1  0     0  0
 18 28  2  0     0  0
 19 26  2  0     0  0
 19 29  1  0     0  0
 21 25  1  0     0  0
 22 25  1  0     0  0
 22 30  2  0     0  0
 24 27  2  0     0  0
 24 31  1  0     0  0
 25 29  2  0     0  0
 26 30  1  0     0  0
 26 39  1  0     0  0
 28 32  1  0     0  0
 31 32  2  0     0  0
 33 38  1  0     0  0
 34 40  1  0     0  0
 36 41  1  0     0  0
 37 42  1  0     0  0
 39 43  1  0     0  0
 40 41  1  0     0  0
 42 43  1  0     0  0
M  END
> <standard_type>
pIC50

> <# Confs.>
25

> <canonical_smiles>
FC1=CC=CC(NC(CC2=CN=C(NC3=NC=NC4=CC(CCCCN5[C@@H](OP(O)(O)=O)CCC5)=C(OC)C=C34)S2)=O)=C1

> <standard_relation>
=

> <Publication_ID>
nan

> <predicted_activity_value>
8.09151498112135

> <actual_activity_value>
8.045757490560675

> <Compound>
7

> <standard_units>
nM

> hash
12078469371866150626

$$$$
6
XXILIB    08252103493D 0   0.00000     0.00000

 43 47  0     1  0            999 V2000
   -7.0859    0.4569    2.5689 S   0  0  0  0  0  2           0  0  0
    4.5241   -7.3603    0.1011 P   0  0  2  0  0  5           0  0  0
  -14.2086   -3.0592    2.1221 F   0  0  0  0  0  1           0  0  0
    4.5386   -8.2216   -1.1281 O   0  0  0  0  0  2           0  0  0
    3.9346   -5.8679   -0.1039 O   0  0  0  0  0  2           0  0  0
    5.9764   -7.1076    0.7682 O   0  0  0  0  0  2           0  0  0
    3.6496   -7.9390    1.3317 O   0  0  0  0  0  2           0  0  0
   -0.0206   -0.0086    2.3507 O   0  0  0  0  0  2           0  0  0
  -11.4924    0.7113    1.8240 O   0  0  0  0  0  2           0  0  0
   -6.9561    1.3095    0.1462 N   0  0  0  0  0  3           0  0  0
   -4.8122    0.0907   -1.5006 N   0  0  0  0  0  3           0  0  0
   -2.6438    0.0749   -2.5208 N   0  0  0  0  0  3           0  0  0
   -5.0674    0.0335    0.8730 N   0  0  0  0  0  3           0  0  0
  -10.4687   -0.3998    3.5894 N   0  0  0  0  0  3           0  0  0
    3.9314   -3.6673   -1.1204 N   0  0  2  0  0  3           0  0  0
   -6.2835    0.6118    1.0418 C   0  0  0  0  0  4           0  0  0
   -8.3940    1.3972    1.9888 C   0  0  0  0  0  4           0  0  0
  -13.1659   -2.8759    2.9445 C   0  0  0  0  0  4           0  0  0
   -0.7396    0.0000    1.1890 C   0  0  0  0  0  4           0  0  0
   -3.9835    0.1031   -2.5532 C   0  0  0  0  0  4           0  0  0
   -4.2385    0.0299   -0.2728 C   0  0  0  0  0  4           0  0  0
   -2.0729    0.0407   -1.3096 C   0  0  0  0  0  4           0  0  0
   -8.1475    1.7553    0.6808 C   0  0  0  0  0  4           0  0  0
  -11.2979   -1.5346    3.6707 C   0  0  0  0  0  4           0  0  0
   -2.8269    0.0244   -0.1214 C   0  0  0  0  0  4           0  0  0
    0.0000    0.0000    0.0000 C   0  0  0  0  0  4           0  0  0
  -12.3840   -1.7300    2.8106 C   0  0  0  0  0  4           0  0  0
  -12.8861   -3.8315    3.9162 C   0  0  0  0  0  4           0  0  0
   -2.1386    0.0113    1.1207 C   0  0  0  0  0  4           0  0  0
   -0.6840    0.0269   -1.2262 C   0  0  0  0  0  4           0  0  0
  -11.0130   -2.4928    4.6523 C   0  0  0  0  0  4           0  0  0
  -11.8049   -3.6378    4.7724 C   0  0  0  0  0  4           0  0  0
  -10.6131    0.6341    2.6814 C   0  0  0  0  0  4           0  0  0
    4.5646   -4.9911   -1.0296 C   0  0  2  0  0  4           0  0  0
   -0.7940   -0.0084    3.5481 C   0  0  0  0  0  4           0  0  0
    4.4116   -3.1180   -2.3929 C   0  0  0  0  0  4           0  0  0
    4.2509   -2.7804    0.0000 C   0  0  0  0  0  4           0  0  0
   -9.5657    1.7117    2.8451 C   0  0  0  0  0  4           0  0  0
    1.5026    0.0000    0.0000 C   0  0  0  0  0  4           0  0  0
    4.3999   -5.5329   -2.4469 C   0  0  0  0  0  4           0  0  0
    4.3286   -4.3026   -3.3422 C   0  0  0  0  0  4           0  0  0
    3.6384   -1.3728    0.0000 C   0  0  0  0  0  4           0  0  0
    2.1122   -1.4009    0.0000 C   0  0  0  0  0  4           0  0  0
  1 16  1  0     0  0
  1 17  1  0     0  0
  2  4  2  0     0  0
  2  5  1  0     0  0
  2  6  1  0     0  0
  2  7  1  0     0  0
  3 18  1  0     0  0
  5 34  1  0     0  0
  8 19  1  0     0  0
  8 35  1  0     0  0
  9 33  2  0     0  0
 10 16  2  0     0  0
 10 23  1  0     0  0
 11 20  1  0     0  0
 11 21  2  0     0  0
 12 20  2  0     0  0
 12 22  1  0     0  0
 13 16  1  0     0  0
 13 21  1  0     0  0
 14 24  1  0     0  0
 14 33  1  0     0  0
 15 34  1  0     0  0
 15 36  1  0     0  0
 15 37  1  0     0  0
 17 23  2  0     0  0
 17 38  1  0     0  0
 18 27  1  0     0  0
 18 28  2  0     0  0
 19 26  2  0     0  0
 19 29  1  0     0  0
 21 25  1  0     0  0
 22 25  1  0     0  0
 22 30  2  0     0  0
 24 27  2  0     0  0
 24 31  1  0     0  0
 25 29  2  0     0  0
 26 30  1  0     0  0
 26 39  1  0     0  0
 28 32  1  0     0  0
 31 32  2  0     0  0
 33 38  1  0     0  0
 34 40  1  0     0  0
 36 41  1  0     0  0
 37 42  1  0     0  0
 39 43  1  0     0  0
 40 41  1  0     0  0
 42 43  1  0     0  0
M  END
> <standard_type>
pIC50

> <# Confs.>
25

> <canonical_smiles>
FC1=CC=CC(NC(CC2=CN=C(NC3=NC=NC4=CC(CCCCN5[C@@H](OP(O)(O)=O)CCC5)=C(OC)C=C34)S2)=O)=C1

> <standard_relation>
=

> <Publication_ID>
nan

> <predicted_activity_value>
8.09151498112135

> <actual_activity_value>
8.045757490560675

> <Compound>
7

> <standard_units>
nM

> hash
12078469371866150626

$$$$
6
XXILIB    08252103493D 0   0.00000     0.00000

 43 47  0     1  0            999 V2000
   -7.0859    0.4569    2.5689 S   0  0  0  0  0  2           0  0  0
    4.5241    7.3603   -0.1011 P   0  0  2  0  0  5           0  0  0
  -15.2028    0.7735   -0.6453 F   0  0  0  0  0  1           0  0  0
    4.5386    8.2216    1.1281 O   0  0  0  0  0  2           0  0  0
    3.9346    5.8679    0.1039 O   0  0  0  0  0  2           0  0  0
    5.9764    7.1076   -0.7682 O   0  0  0  0  0  2           0  0  0
    3.6496    7.9390   -1.3317 O   0  0  0  0  0  2           0  0  0
   -0.0206   -0.0086    2.3507 O   0  0  0  0  0  2           0  0  0
  -11.3494    2.4043    1.3981 O   0  0  0  0  0  2           0  0  0
   -6.9561    1.3095    0.1462 N   0  0  0  0  0  3           0  0  0
   -4.8122    0.0907   -1.5006 N   0  0  0  0  0  3           0  0  0
   -2.6438    0.0749   -2.5208 N   0  0  0  0  0  3           0  0  0
   -5.0674    0.0335    0.8730 N   0  0  0  0  0  3           0  0  0
  -11.3372    0.2147    2.1755 N   0  0  0  0  0  3           0  0  0
    3.9314    3.6673    1.1204 N   0  0  2  0  0  3           0  0  0
   -6.2835    0.6118    1.0418 C   0  0  0  0  0  4           0  0  0
   -8.3940    1.3972    1.9888 C   0  0  0  0  0  4           0  0  0
  -14.4423   -0.0001    0.1422 C   0  0  0  0  0  4           0  0  0
   -0.7396    0.0000    1.1890 C   0  0  0  0  0  4           0  0  0
   -3.9835    0.1031   -2.5532 C   0  0  0  0  0  4           0  0  0
   -4.2385    0.0299   -0.2728 C   0  0  0  0  0  4           0  0  0
   -2.0729    0.0407   -1.3096 C   0  0  0  0  0  4           0  0  0
   -8.1475    1.7553    0.6808 C   0  0  0  0  0  4           0  0  0
  -12.5050   -0.2664    1.5535 C   0  0  0  0  0  4           0  0  0
   -2.8269    0.0244   -0.1214 C   0  0  0  0  0  4           0  0  0
    0.0000    0.0000    0.0000 C   0  0  0  0  0  4           0  0  0
  -13.2977    0.5380    0.7277 C   0  0  0  0  0  4           0  0  0
  -14.8113   -1.3236    0.3612 C   0  0  0  0  0  4           0  0  0
   -2.1386    0.0113    1.1207 C   0  0  0  0  0  4           0  0  0
   -0.6840    0.0269   -1.2262 C   0  0  0  0  0  4           0  0  0
  -12.8732   -1.5993    1.7790 C   0  0  0  0  0  4           0  0  0
  -14.0224   -2.1249    1.1829 C   0  0  0  0  0  4           0  0  0
  -10.8376    1.4994    2.0565 C   0  0  0  0  0  4           0  0  0
    4.5646    4.9911    1.0296 C   0  0  2  0  0  4           0  0  0
   -0.7940   -0.0084    3.5481 C   0  0  0  0  0  4           0  0  0
    4.4116    3.1180    2.3929 C   0  0  0  0  0  4           0  0  0
    4.2509    2.7804   -0.0000 C   0  0  0  0  0  4           0  0  0
   -9.5657    1.7117    2.8451 C   0  0  0  0  0  4           0  0  0
    1.5026    0.0000   -0.0000 C   0  0  0  0  0  4           0  0  0
    4.3999    5.5329    2.4469 C   0  0  0  0  0  4           0  0  0
    4.3286    4.3026    3.3422 C   0  0  0  0  0  4           0  0  0
    3.6384    1.3728   -0.0000 C   0  0  0  0  0  4           0  0  0
    2.1122    1.4009    0.0000 C   0  0  0  0  0  4           0  0  0
  1 16  1  0     0  0
  1 17  1  0     0  0
  2  4  2  0     0  0
  2  5  1  0     0  0
  2  6  1  0     0  0
  2  7  1  0     0  0
  3 18  1  0     0  0
  5 34  1  0     0  0
  8 19  1  0     0  0
  8 35  1  0     0  0
  9 33  2  0     0  0
 10 16  2  0     0  0
 10 23  1  0     0  0
 11 20  1  0     0  0
 11 21  2  0     0  0
 12 20  2  0     0  0
 12 22  1  0     0  0
 13 16  1  0     0  0
 13 21  1  0     0  0
 14 24  1  0     0  0
 14 33  1  0     0  0
 15 34  1  0     0  0
 15 36  1  0     0  0
 15 37  1  0     0  0
 17 23  2  0     0  0
 17 38  1  0     0  0
 18 27  1  0     0  0
 18 28  2  0     0  0
 19 26  2  0     0  0
 19 29  1  0     0  0
 21 25  1  0     0  0
 22 25  1  0     0  0
 22 30  2  0     0  0
 24 27  2  0     0  0
 24 31  1  0     0  0
 25 29  2  0     0  0
 26 30  1  0     0  0
 26 39  1  0     0  0
 28 32  1  0     0  0
 31 32  2  0     0  0
 33 38  1  0     0  0
 34 40  1  0     0  0
 36 41  1  0     0  0
 37 42  1  0     0  0
 39 43  1  0     0  0
 40 41  1  0     0  0
 42 43  1  0     0  0
M  END
> <standard_type>
pIC50

> <# Confs.>
25

> <canonical_smiles>
FC1=CC=CC(NC(CC2=CN=C(NC3=NC=NC4=CC(CCCCN5[C@@H](OP(O)(O)=O)CCC5)=C(OC)C=C34)S2)=O)=C1

> <standard_relation>
=

> <Publication_ID>
nan

> <predicted_activity_value>
8.09151498112135

> <actual_activity_value>
8.045757490560675

> <Compound>
7

> <standard_units>
nM

> hash
12078469371866150626

$$$$
6
XXILIB    08252103493D 0   0.00000     0.00000

 43 47  0     1  0            999 V2000
   -7.0859    0.4569    2.5689 S   0  0  0  0  0  2           0  0  0
    4.5241    7.3603   -0.1011 P   0  0  2  0  0  5           0  0  0
  -14.2086   -3.0592    2.1221 F   0  0  0  0  0  1           0  0  0
    4.5386    8.2216    1.1281 O   0  0  0  0  0  2           0  0  0
    3.9346    5.8679    0.1039 O   0  0  0  0  0  2           0  0  0
    5.9764    7.1076   -0.7682 O   0  0  0  0  0  2           0  0  0
    3.6496    7.9390   -1.3317 O   0  0  0  0  0  2           0  0  0
   -0.0206   -0.0086    2.3507 O   0  0  0  0  0  2           0  0  0
  -11.4924    0.7113    1.8240 O   0  0  0  0  0  2           0  0  0
   -6.9561    1.3095    0.1462 N   0  0  0  0  0  3           0  0  0
   -4.8122    0.0907   -1.5006 N   0  0  0  0  0  3           0  0  0
   -2.6438    0.0749   -2.5208 N   0  0  0  0  0  3           0  0  0
   -5.0674    0.0335    0.8730 N   0  0  0  0  0  3           0  0  0
  -10.4687   -0.3998    3.5894 N   0  0  0  0  0  3           0  0  0
    3.9314    3.6673    1.1204 N   0  0  2  0  0  3           0  0  0
   -6.2835    0.6118    1.0418 C   0  0  0  0  0  4           0  0  0
   -8.3940    1.3972    1.9888 C   0  0  0  0  0  4           0  0  0
  -13.1659   -2.8759    2.9445 C   0  0  0  0  0  4           0  0  0
   -0.7396    0.0000    1.1890 C   0  0  0  0  0  4           0  0  0
   -3.9835    0.1031   -2.5532 C   0  0  0  0  0  4           0  0  0
   -4.2385    0.0299   -0.2728 C   0  0  0  0  0  4           0  0  0
   -2.0729    0.0407   -1.3096 C   0  0  0  0  0  4           0  0  0
   -8.1475    1.7553    0.6808 C   0  0  0  0  0  4           0  0  0
  -11.2979   -1.5346    3.6707 C   0  0  0  0  0  4           0  0  0
   -2.8269    0.0244   -0.1214 C   0  0  0  0  0  4           0  0  0
    0.0000    0.0000    0.0000 C   0  0  0  0  0  4           0  0  0
  -12.3840   -1.7300    2.8106 C   0  0  0  0  0  4           0  0  0
  -12.8861   -3.8315    3.9162 C   0  0  0  0  0  4           0  0  0
   -2.1386    0.0113    1.1207 C   0  0  0  0  0  4           0  0  0
   -0.6840    0.0269   -1.2262 C   0  0  0  0  0  4           0  0  0
  -11.0130   -2.4928    4.6523 C   0  0  0  0  0  4           0  0  0
  -11.8049   -3.6378    4.7724 C   0  0  0  0  0  4           0  0  0
  -10.6131    0.6341    2.6814 C   0  0  0  0  0  4           0  0  0
    4.5646    4.9911    1.0296 C   0  0  2  0  0  4           0  0  0
   -0.7940   -0.0084    3.5481 C   0  0  0  0  0  4           0  0  0
    4.4116    3.1180    2.3929 C   0  0  0  0  0  4           0  0  0
    4.2509    2.7804   -0.0000 C   0  0  0  0  0  4           0  0  0
   -9.5657    1.7117    2.8451 C   0  0  0  0  0  4           0  0  0
    1.5026    0.0000   -0.0000 C   0  0  0  0  0  4           0  0  0
    4.3999    5.5329    2.4469 C   0  0  0  0  0  4           0  0  0
    4.3286    4.3026    3.3422 C   0  0  0  0  0  4           0  0  0
    3.6384    1.3728   -0.0000 C   0  0  0  0  0  4           0  0  0
    2.1122    1.4009    0.0000 C   0  0  0  0  0  4           0  0  0
  1 16  1  0     0  0
  1 17  1  0     0  0
  2  4  2  0     0  0
  2  5  1  0     0  0
  2  6  1  0     0  0
  2  7  1  0     0  0
  3 18  1  0     0  0
  5 34  1  0     0  0
  8 19  1  0     0  0
  8 35  1  0     0  0
  9 33  2  0     0  0
 10 16  2  0     0  0
 10 23  1  0     0  0
 11 20  1  0     0  0
 11 21  2  0     0  0
 12 20  2  0     0  0
 12 22  1  0     0  0
 13 16  1  0     0  0
 13 21  1  0     0  0
 14 24  1  0     0  0
 14 33  1  0     0  0
 15 34  1  0     0  0
 15 36  1  0     0  0
 15 37  1  0     0  0
 17 23  2  0     0  0
 17 38  1  0     0  0
 18 27  1  0     0  0
 18 28  2  0     0  0
 19 26  2  0     0  0
 19 29  1  0     0  0
 21 25  1  0     0  0
 22 25  1  0     0  0
 22 30  2  0     0  0
 24 27  2  0     0  0
 24 31  1  0     0  0
 25 29  2  0     0  0
 26 30  1  0     0  0
 26 39  1  0     0  0
 28 32  1  0     0  0
 31 32  2  0     0  0
 33 38  1  0     0  0
 34 40  1  0     0  0
 36 41  1  0     0  0
 37 42  1  0     0  0
 39 43  1  0     0  0
 40 41  1  0     0  0
 42 43  1  0     0  0
M  END
> <standard_type>
pIC50

> <# Confs.>
25

> <canonical_smiles>
FC1=CC=CC(NC(CC2=CN=C(NC3=NC=NC4=CC(CCCCN5[C@@H](OP(O)(O)=O)CCC5)=C(OC)C=C34)S2)=O)=C1

> <standard_relation>
=

> <Publication_ID>
nan

> <predicted_activity_value>
8.09151498112135

> <actual_activity_value>
8.045757490560675

> <Compound>
7

> <standard_units>
nM

> hash
12078469371866150626

$$$$
6
XXILIB    08252103493D 0   0.00000     0.00000

 43 47  0     1  0            999 V2000
   -7.0859    0.4569    2.5689 S   0  0  0  0  0  2           0  0  0
    4.5241   -7.3603    0.1011 P   0  0  2  0  0  5           0  0  0
   -8.4449    7.4312    6.1421 F   0  0  0  0  0  1           0  0  0
    4.5386   -8.2216   -1.1281 O   0  0  0  0  0  2           0  0  0
    3.9346   -5.8679   -0.1039 O   0  0  0  0  0  2           0  0  0
    5.9764   -7.1076    0.7682 O   0  0  0  0  0  2           0  0  0
    3.6496   -7.9390    1.3317 O   0  0  0  0  0  2           0  0  0
   -0.0206   -0.0086    2.3507 O   0  0  0  0  0  2           0  0  0
   -9.6365    4.0936    3.1216 O   0  0  0  0  0  2           0  0  0
   -6.9561    1.3095    0.1462 N   0  0  0  0  0  3           0  0  0
   -4.8122    0.0907   -1.5006 N   0  0  0  0  0  3           0  0  0
   -2.6438    0.0749   -2.5208 N   0  0  0  0  0  3           0  0  0
   -5.0674    0.0335    0.8730 N   0  0  0  0  0  3           0  0  0
   -8.6884    2.8079    4.8088 N   0  0  0  0  0  3           0  0  0
    3.9314   -3.6673   -1.1204 N   0  0  2  0  0  3           0  0  0
   -6.2835    0.6118    1.0418 C   0  0  0  0  0  4           0  0  0
   -8.3940    1.3972    1.9888 C   0  0  0  0  0  4           0  0  0
   -8.2053    6.1363    6.3931 C   0  0  0  0  0  4           0  0  0
   -0.7396    0.0000    1.1890 C   0  0  0  0  0  4           0  0  0
   -3.9835    0.1031   -2.5532 C   0  0  0  0  0  4           0  0  0
   -4.2385    0.0299   -0.2728 C   0  0  0  0  0  4           0  0  0
   -2.0729    0.0407   -1.3096 C   0  0  0  0  0  4           0  0  0
   -8.1475    1.7553    0.6808 C   0  0  0  0  0  4           0  0  0
   -8.3315    3.8260    5.7133 C   0  0  0  0  0  4           0  0  0
   -2.8269    0.0244   -0.1214 C   0  0  0  0  0  4           0  0  0
    0.0000    0.0000    0.0000 C   0  0  0  0  0  4           0  0  0
   -8.5845    5.1776    5.4553 C   0  0  0  0  0  4           0  0  0
   -7.5814    5.7753    7.5831 C   0  0  0  0  0  4           0  0  0
   -2.1386    0.0113    1.1207 C   0  0  0  0  0  4           0  0  0
   -0.6840    0.0269   -1.2262 C   0  0  0  0  0  4           0  0  0
   -7.7016    3.4571    6.9092 C   0  0  0  0  0  4           0  0  0
   -7.3296    4.4299    7.8406 C   0  0  0  0  0  4           0  0  0
   -9.3136    3.0025    3.5900 C   0  0  0  0  0  4           0  0  0
    4.5646   -4.9911   -1.0296 C   0  0  2  0  0  4           0  0  0
   -0.7940   -0.0084    3.5481 C   0  0  0  0  0  4           0  0  0
    4.4116   -3.1180   -2.3929 C   0  0  0  0  0  4           0  0  0
    4.2509   -2.7804    0.0000 C   0  0  0  0  0  4           0  0  0
   -9.5657    1.7117    2.8451 C   0  0  0  0  0  4           0  0  0
    1.5026    0.0000    0.0000 C   0  0  0  0  0  4           0  0  0
    4.3999   -5.5329   -2.4469 C   0  0  0  0  0  4           0  0  0
    4.3286   -4.3026   -3.3422 C   0  0  0  0  0  4           0  0  0
    3.6384   -1.3728    0.0000 C   0  0  0  0  0  4           0  0  0
    2.1122   -1.4009    0.0000 C   0  0  0  0  0  4           0  0  0
  1 16  1  0     0  0
  1 17  1  0     0  0
  2  4  2  0     0  0
  2  5  1  0     0  0
  2  6  1  0     0  0
  2  7  1  0     0  0
  3 18  1  0     0  0
  5 34  1  0     0  0
  8 19  1  0     0  0
  8 35  1  0     0  0
  9 33  2  0     0  0
 10 16  2  0     0  0
 10 23  1  0     0  0
 11 20  1  0     0  0
 11 21  2  0     0  0
 12 20  2  0     0  0
 12 22  1  0     0  0
 13 16  1  0     0  0
 13 21  1  0     0  0
 14 24  1  0     0  0
 14 33  1  0     0  0
 15 34  1  0     0  0
 15 36  1  0     0  0
 15 37  1  0     0  0
 17 23  2  0     0  0
 17 38  1  0     0  0
 18 27  1  0     0  0
 18 28  2  0     0  0
 19 26  2  0     0  0
 19 29  1  0     0  0
 21 25  1  0     0  0
 22 25  1  0     0  0
 22 30  2  0     0  0
 24 27  2  0     0  0
 24 31  1  0     0  0
 25 29  2  0     0  0
 26 30  1  0     0  0
 26 39  1  0     0  0
 28 32  1  0     0  0
 31 32  2  0     0  0
 33 38  1  0     0  0
 34 40  1  0     0  0
 36 41  1  0     0  0
 37 42  1  0     0  0
 39 43  1  0     0  0
 40 41  1  0     0  0
 42 43  1  0     0  0
M  END
> <standard_type>
pIC50

> <# Confs.>
25

> <canonical_smiles>
FC1=CC=CC(NC(CC2=CN=C(NC3=NC=NC4=CC(CCCCN5[C@@H](OP(O)(O)=O)CCC5)=C(OC)C=C34)S2)=O)=C1

> <standard_relation>
=

> <Publication_ID>
nan

> <predicted_activity_value>
8.09151498112135

> <actual_activity_value>
8.045757490560675

> <Compound>
7

> <standard_units>
nM

> hash
12078469371866150626

$$$$
6
XXILIB    08252103493D 0   0.00000     0.00000

 43 47  0     1  0            999 V2000
   -7.0859    0.4569    2.5689 S   0  0  0  0  0  2           0  0  0
    4.5241   -7.3603    0.1011 P   0  0  2  0  0  5           0  0  0
   -8.4522    7.4295    6.1476 F   0  0  0  0  0  1           0  0  0
    4.5386   -8.2216   -1.1281 O   0  0  0  0  0  2           0  0  0
    3.9346   -5.8679   -0.1039 O   0  0  0  0  0  2           0  0  0
    5.9764   -7.1076    0.7682 O   0  0  0  0  0  2           0  0  0
    3.6496   -7.9390    1.3317 O   0  0  0  0  0  2           0  0  0
   -0.0206   -0.0086    2.3507 O   0  0  0  0  0  2           0  0  0
   -8.7747    3.0167    4.6962 O   0  0  0  0  0  2           0  0  0
   -6.9561    1.3095    0.1462 N   0  0  0  0  0  3           0  0  0
   -4.8122    0.0907   -1.5006 N   0  0  0  0  0  3           0  0  0
   -2.6438    0.0749   -2.5208 N   0  0  0  0  0  3           0  0  0
   -5.0674    0.0335    0.8730 N   0  0  0  0  0  3           0  0  0
   -9.7590    4.1173    2.9021 N   0  0  0  0  0  3           0  0  0
    3.9314   -3.6673   -1.1204 N   0  0  2  0  0  3           0  0  0
   -6.2835    0.6118    1.0418 C   0  0  0  0  0  4           0  0  0
   -8.3940    1.3972    1.9888 C   0  0  0  0  0  4           0  0  0
   -9.0061    7.1151    4.9680 C   0  0  0  0  0  4           0  0  0
   -0.7396    0.0000    1.1890 C   0  0  0  0  0  4           0  0  0
   -3.9835    0.1031   -2.5532 C   0  0  0  0  0  4           0  0  0
   -4.2385    0.0299   -0.2728 C   0  0  0  0  0  4           0  0  0
   -2.0729    0.0407   -1.3096 C   0  0  0  0  0  4           0  0  0
   -8.1475    1.7553    0.6808 C   0  0  0  0  0  4           0  0  0
   -9.6571    5.4472    3.3524 C   0  0  0  0  0  4           0  0  0
   -2.8269    0.0244   -0.1214 C   0  0  0  0  0  4           0  0  0
    0.0000    0.0000    0.0000 C   0  0  0  0  0  4           0  0  0
   -9.0754    5.7779    4.5811 C   0  0  0  0  0  4           0  0  0
   -9.5025    8.1288    4.1546 C   0  0  0  0  0  4           0  0  0
   -2.1386    0.0113    1.1207 C   0  0  0  0  0  4           0  0  0
   -0.6840    0.0269   -1.2262 C   0  0  0  0  0  4           0  0  0
  -10.1605    6.4641    2.5303 C   0  0  0  0  0  4           0  0  0
  -10.0814    7.8002    2.9312 C   0  0  0  0  0  4           0  0  0
   -9.3136    3.0025    3.5900 C   0  0  0  0  0  4           0  0  0
    4.5646   -4.9911   -1.0296 C   0  0  2  0  0  4           0  0  0
   -0.7940   -0.0084    3.5481 C   0  0  0  0  0  4           0  0  0
    4.4116   -3.1180   -2.3929 C   0  0  0  0  0  4           0  0  0
    4.2509   -2.7804    0.0000 C   0  0  0  0  0  4           0  0  0
   -9.5657    1.7117    2.8451 C   0  0  0  0  0  4           0  0  0
    1.5026    0.0000    0.0000 C   0  0  0  0  0  4           0  0  0
    4.3999   -5.5329   -2.4469 C   0  0  0  0  0  4           0  0  0
    4.3286   -4.3026   -3.3422 C   0  0  0  0  0  4           0  0  0
    3.6384   -1.3728    0.0000 C   0  0  0  0  0  4           0  0  0
    2.1122   -1.4009    0.0000 C   0  0  0  0  0  4           0  0  0
  1 16  1  0     0  0
  1 17  1  0     0  0
  2  4  2  0     0  0
  2  5  1  0     0  0
  2  6  1  0     0  0
  2  7  1  0     0  0
  3 18  1  0     0  0
  5 34  1  0     0  0
  8 19  1  0     0  0
  8 35  1  0     0  0
  9 33  2  0     0  0
 10 16  2  0     0  0
 10 23  1  0     0  0
 11 20  1  0     0  0
 11 21  2  0     0  0
 12 20  2  0     0  0
 12 22  1  0     0  0
 13 16  1  0     0  0
 13 21  1  0     0  0
 14 24  1  0     0  0
 14 33  1  0     0  0
 15 34  1  0     0  0
 15 36  1  0     0  0
 15 37  1  0     0  0
 17 23  2  0     0  0
 17 38  1  0     0  0
 18 27  1  0     0  0
 18 28  2  0     0  0
 19 26  2  0     0  0
 19 29  1  0     0  0
 21 25  1  0     0  0
 22 25  1  0     0  0
 22 30  2  0     0  0
 24 27  2  0     0  0
 24 31  1  0     0  0
 25 29  2  0     0  0
 26 30  1  0     0  0
 26 39  1  0     0  0
 28 32  1  0     0  0
 31 32  2  0     0  0
 33 38  1  0     0  0
 34 40  1  0     0  0
 36 41  1  0     0  0
 37 42  1  0     0  0
 39 43  1  0     0  0
 40 41  1  0     0  0
 42 43  1  0     0  0
M  END
> <standard_type>
pIC50

> <# Confs.>
25

> <canonical_smiles>
FC1=CC=CC(NC(CC2=CN=C(NC3=NC=NC4=CC(CCCCN5[C@@H](OP(O)(O)=O)CCC5)=C(OC)C=C34)S2)=O)=C1

> <standard_relation>
=

> <Publication_ID>
nan

> <predicted_activity_value>
8.09151498112135

> <actual_activity_value>
8.045757490560675

> <Compound>
7

> <standard_units>
nM

> hash
12078469371866150626

$$$$
6
XXILIB    08252103493D 0   0.00000     0.00000

 43 47  0     1  0            999 V2000
   -7.0859    0.4569    2.5689 S   0  0  0  0  0  2           0  0  0
    4.5241   -7.3603    0.1011 P   0  0  2  0  0  5           0  0  0
  -11.1268    8.1907    2.1937 F   0  0  0  0  0  1           0  0  0
    4.5386   -8.2216   -1.1281 O   0  0  0  0  0  2           0  0  0
    3.9346   -5.8679   -0.1039 O   0  0  0  0  0  2           0  0  0
    5.9764   -7.1076    0.7682 O   0  0  0  0  0  2           0  0  0
    3.6496   -7.9390    1.3317 O   0  0  0  0  0  2           0  0  0
   -0.0206   -0.0086    2.3507 O   0  0  0  0  0  2           0  0  0
  -10.7120    3.5660    1.8437 O   0  0  0  0  0  2           0  0  0
   -6.9561    1.3095    0.1462 N   0  0  0  0  0  3           0  0  0
   -4.8122    0.0907   -1.5006 N   0  0  0  0  0  3           0  0  0
   -2.6438    0.0749   -2.5208 N   0  0  0  0  0  3           0  0  0
   -5.0674    0.0335    0.8730 N   0  0  0  0  0  3           0  0  0
   -9.2537    3.9819    3.6042 N   0  0  0  0  0  3           0  0  0
    3.9314   -3.6673   -1.1204 N   0  0  2  0  0  3           0  0  0
   -6.2835    0.6118    1.0418 C   0  0  0  0  0  4           0  0  0
   -8.3940    1.3972    1.9888 C   0  0  0  0  0  4           0  0  0
  -10.3182    7.4931    3.0040 C   0  0  0  0  0  4           0  0  0
   -0.7396    0.0000    1.1890 C   0  0  0  0  0  4           0  0  0
   -3.9835    0.1031   -2.5532 C   0  0  0  0  0  4           0  0  0
   -4.2385    0.0299   -0.2728 C   0  0  0  0  0  4           0  0  0
   -2.0729    0.0407   -1.3096 C   0  0  0  0  0  4           0  0  0
   -8.1475    1.7553    0.6808 C   0  0  0  0  0  4           0  0  0
   -9.3864    5.3802    3.6993 C   0  0  0  0  0  4           0  0  0
   -2.8269    0.0244   -0.1214 C   0  0  0  0  0  4           0  0  0
    0.0000    0.0000    0.0000 C   0  0  0  0  0  4           0  0  0
  -10.2330    6.1097    2.8575 C   0  0  0  0  0  4           0  0  0
   -9.5788    8.1635    3.9734 C   0  0  0  0  0  4           0  0  0
   -2.1386    0.0113    1.1207 C   0  0  0  0  0  4           0  0  0
   -0.6840    0.0269   -1.2262 C   0  0  0  0  0  4           0  0  0
   -8.6380    6.0506    4.6758 C   0  0  0  0  0  4           0  0  0
   -8.7361    7.4377    4.8118 C   0  0  0  0  0  4           0  0  0
   -9.9187    3.1741    2.6989 C   0  0  0  0  0  4           0  0  0
    4.5646   -4.9911   -1.0296 C   0  0  2  0  0  4           0  0  0
   -0.7940   -0.0084    3.5481 C   0  0  0  0  0  4           0  0  0
    4.4116   -3.1180   -2.3929 C   0  0  0  0  0  4           0  0  0
    4.2509   -2.7804    0.0000 C   0  0  0  0  0  4           0  0  0
   -9.5657    1.7117    2.8451 C   0  0  0  0  0  4           0  0  0
    1.5026    0.0000    0.0000 C   0  0  0  0  0  4           0  0  0
    4.3999   -5.5329   -2.4469 C   0  0  0  0  0  4           0  0  0
    4.3286   -4.3026   -3.3422 C   0  0  0  0  0  4           0  0  0
    3.6384   -1.3728    0.0000 C   0  0  0  0  0  4           0  0  0
    2.1122   -1.4009    0.0000 C   0  0  0  0  0  4           0  0  0
  1 16  1  0     0  0
  1 17  1  0     0  0
  2  4  2  0     0  0
  2  5  1  0     0  0
  2  6  1  0     0  0
  2  7  1  0     0  0
  3 18  1  0     0  0
  5 34  1  0     0  0
  8 19  1  0     0  0
  8 35  1  0     0  0
  9 33  2  0     0  0
 10 16  2  0     0  0
 10 23  1  0     0  0
 11 20  1  0     0  0
 11 21  2  0     0  0
 12 20  2  0     0  0
 12 22  1  0     0  0
 13 16  1  0     0  0
 13 21  1  0     0  0
 14 24  1  0     0  0
 14 33  1  0     0  0
 15 34  1  0     0  0
 15 36  1  0     0  0
 15 37  1  0     0  0
 17 23  2  0     0  0
 17 38  1  0     0  0
 18 27  1  0     0  0
 18 28  2  0     0  0
 19 26  2  0     0  0
 19 29  1  0     0  0
 21 25  1  0     0  0
 22 25  1  0     0  0
 22 30  2  0     0  0
 24 27  2  0     0  0
 24 31  1  0     0  0
 25 29  2  0     0  0
 26 30  1  0     0  0
 26 39  1  0     0  0
 28 32  1  0     0  0
 31 32  2  0     0  0
 33 38  1  0     0  0
 34 40  1  0     0  0
 36 41  1  0     0  0
 37 42  1  0     0  0
 39 43  1  0     0  0
 40 41  1  0     0  0
 42 43  1  0     0  0
M  END
> <standard_type>
pIC50

> <# Confs.>
25

> <canonical_smiles>
FC1=CC=CC(NC(CC2=CN=C(NC3=NC=NC4=CC(CCCCN5[C@@H](OP(O)(O)=O)CCC5)=C(OC)C=C34)S2)=O)=C1

> <standard_relation>
=

> <Publication_ID>
nan

> <predicted_activity_value>
8.09151498112135

> <actual_activity_value>
8.045757490560675

> <Compound>
7

> <standard_units>
nM

> hash
12078469371866150626

$$$$
6
XXILIB    08252103493D 0   0.00000     0.00000

 43 47  0     1  0            999 V2000
   -7.0859    0.4569    2.5689 S   0  0  0  0  0  2           0  0  0
    3.8231    1.4557   -4.3729 P   0  0  2  0  0  5           0  0  0
  -14.2024   -3.0645    2.1177 F   0  0  0  0  0  1           0  0  0
    3.8478    2.4030   -5.5369 O   0  0  0  0  0  2           0  0  0
    3.4904    2.1264   -2.9389 O   0  0  0  0  0  2           0  0  0
    5.2118    0.6676   -4.1115 O   0  0  0  0  0  2           0  0  0
    2.7382    0.2622   -4.4851 O   0  0  0  0  0  2           0  0  0
   -0.0206   -0.0086    2.3507 O   0  0  0  0  0  2           0  0  0
  -10.6305   -0.3656    3.3987 O   0  0  0  0  0  2           0  0  0
   -6.9561    1.3095    0.1462 N   0  0  0  0  0  3           0  0  0
   -4.8122    0.0907   -1.5006 N   0  0  0  0  0  3           0  0  0
   -2.6438    0.0749   -2.5208 N   0  0  0  0  0  3           0  0  0
   -5.0674    0.0335    0.8730 N   0  0  0  0  0  3           0  0  0
  -11.5040    0.9000    1.6568 N   0  0  0  0  0  3           0  0  0
    3.9314    3.6673   -1.1204 N   0  0  2  0  0  3           0  0  0
   -6.2835    0.6118    1.0418 C   0  0  0  0  0  4           0  0  0
   -8.3940    1.3972    1.9888 C   0  0  0  0  0  4           0  0  0
  -13.9394   -1.9045    1.4994 C   0  0  0  0  0  4           0  0  0
   -0.7396    0.0000    1.1890 C   0  0  0  0  0  4           0  0  0
   -3.9835    0.1031   -2.5532 C   0  0  0  0  0  4           0  0  0
   -4.2385    0.0299   -0.2728 C   0  0  0  0  0  4           0  0  0
   -2.0729    0.0407   -1.3096 C   0  0  0  0  0  4           0  0  0
   -8.1475    1.7553    0.6808 C   0  0  0  0  0  4           0  0  0
  -12.5797    0.0749    1.2778 C   0  0  0  0  0  4           0  0  0
   -2.8269    0.0244   -0.1214 C   0  0  0  0  0  4           0  0  0
    0.0000    0.0000    0.0000 C   0  0  0  0  0  4           0  0  0
  -12.8586   -1.1340    1.9245 C   0  0  0  0  0  4           0  0  0
  -14.7488   -1.4937    0.4450 C   0  0  0  0  0  4           0  0  0
   -2.1386    0.0113    1.1207 C   0  0  0  0  0  4           0  0  0
   -0.6840    0.0269   -1.2262 C   0  0  0  0  0  4           0  0  0
  -13.3904    0.4923    0.2139 C   0  0  0  0  0  4           0  0  0
  -14.4719   -0.2902   -0.1990 C   0  0  0  0  0  4           0  0  0
  -10.6131    0.6341    2.6814 C   0  0  0  0  0  4           0  0  0
    4.3452    3.1428   -2.4301 C   0  0  2  0  0  4           0  0  0
   -0.7940   -0.0084    3.5481 C   0  0  0  0  0  4           0  0  0
    4.6294    4.9521   -1.0032 C   0  0  0  0  0  4           0  0  0
    4.2509    2.7804    0.0000 C   0  0  0  0  0  4           0  0  0
   -9.5657    1.7117    2.8451 C   0  0  0  0  0  4           0  0  0
    1.5026    0.0000    0.0000 C   0  0  0  0  0  4           0  0  0
    4.2629    4.3793   -3.3210 C   0  0  0  0  0  4           0  0  0
    4.4783    5.5631   -2.3871 C   0  0  0  0  0  4           0  0  0
    3.6384    1.3728    0.0000 C   0  0  0  0  0  4           0  0  0
    2.1122    1.4009    0.0000 C   0  0  0  0  0  4           0  0  0
  1 16  1  0     0  0
  1 17  1  0     0  0
  2  4  2  0     0  0
  2  5  1  0     0  0
  2  6  1  0     0  0
  2  7  1  0     0  0
  3 18  1  0     0  0
  5 34  1  0     0  0
  8 19  1  0     0  0
  8 35  1  0     0  0
  9 33  2  0     0  0
 10 16  2  0     0  0
 10 23  1  0     0  0
 11 20  1  0     0  0
 11 21  2  0     0  0
 12 20  2  0     0  0
 12 22  1  0     0  0
 13 16  1  0     0  0
 13 21  1  0     0  0
 14 24  1  0     0  0
 14 33  1  0     0  0
 15 34  1  0     0  0
 15 36  1  0     0  0
 15 37  1  0     0  0
 17 23  2  0     0  0
 17 38  1  0     0  0
 18 27  1  0     0  0
 18 28  2  0     0  0
 19 26  2  0     0  0
 19 29  1  0     0  0
 21 25  1  0     0  0
 22 25  1  0     0  0
 22 30  2  0     0  0
 24 27  2  0     0  0
 24 31  1  0     0  0
 25 29  2  0     0  0
 26 30  1  0     0  0
 26 39  1  0     0  0
 28 32  1  0     0  0
 31 32  2  0     0  0
 33 38  1  0     0  0
 34 40  1  0     0  0
 36 41  1  0     0  0
 37 42  1  0     0  0
 39 43  1  0     0  0
 40 41  1  0     0  0
 42 43  1  0     0  0
M  END
> <standard_type>
pIC50

> <# Confs.>
25

> <canonical_smiles>
FC1=CC=CC(NC(CC2=CN=C(NC3=NC=NC4=CC(CCCCN5[C@@H](OP(O)(O)=O)CCC5)=C(OC)C=C34)S2)=O)=C1

> <standard_relation>
=

> <Publication_ID>
nan

> <predicted_activity_value>
8.09151498112135

> <actual_activity_value>
8.045757490560675

> <Compound>
7

> <standard_units>
nM

> hash
12078469371866150626

$$$$
6
XXILIB    08252103493D 0   0.00000     0.00000

 43 47  0     1  0            999 V2000
   -7.0859    0.4569    2.5689 S   0  0  0  0  0  2           0  0  0
    6.6127    6.4514    1.4162 P   0  0  2  0  0  5           0  0  0
  -15.2028    0.7735   -0.6453 F   0  0  0  0  0  1           0  0  0
    8.0577    6.6904    1.0877 O   0  0  0  0  0  2           0  0  0
    6.1105    4.9211    1.2661 O   0  0  0  0  0  2           0  0  0
    5.5650    7.2866    0.5092 O   0  0  0  0  0  2           0  0  0
    6.1815    6.8373    2.9259 O   0  0  0  0  0  2           0  0  0
   -0.0206   -0.0086    2.3507 O   0  0  0  0  0  2           0  0  0
  -11.3494    2.4043    1.3981 O   0  0  0  0  0  2           0  0  0
   -6.9561    1.3095    0.1462 N   0  0  0  0  0  3           0  0  0
   -4.8122    0.0907   -1.5006 N   0  0  0  0  0  3           0  0  0
   -2.6438    0.0749   -2.5208 N   0  0  0  0  0  3           0  0  0
   -5.0674    0.0335    0.8730 N   0  0  0  0  0  3           0  0  0
  -11.3372    0.2147    2.1755 N   0  0  0  0  0  3           0  0  0
    5.7109    2.8930   -0.0000 N   0  0  2  0  0  3           0  0  0
   -6.2835    0.6118    1.0418 C   0  0  0  0  0  4           0  0  0
   -8.3940    1.3972    1.9888 C   0  0  0  0  0  4           0  0  0
  -14.4423   -0.0001    0.1422 C   0  0  0  0  0  4           0  0  0
   -0.7396    0.0000    1.1890 C   0  0  0  0  0  4           0  0  0
   -3.9835    0.1031   -2.5532 C   0  0  0  0  0  4           0  0  0
   -4.2385    0.0299   -0.2728 C   0  0  0  0  0  4           0  0  0
   -2.0729    0.0407   -1.3096 C   0  0  0  0  0  4           0  0  0
   -8.1475    1.7553    0.6808 C   0  0  0  0  0  4           0  0  0
  -12.5050   -0.2664    1.5535 C   0  0  0  0  0  4           0  0  0
   -2.8269    0.0244   -0.1214 C   0  0  0  0  0  4           0  0  0
    0.0000    0.0000    0.0000 C   0  0  0  0  0  4           0  0  0
  -13.2977    0.5380    0.7277 C   0  0  0  0  0  4           0  0  0
  -14.8113   -1.3236    0.3612 C   0  0  0  0  0  4           0  0  0
   -2.1386    0.0113    1.1207 C   0  0  0  0  0  4           0  0  0
   -0.6840    0.0269   -1.2262 C   0  0  0  0  0  4           0  0  0
  -12.8732   -1.5993    1.7790 C   0  0  0  0  0  4           0  0  0
  -14.0224   -2.1249    1.1829 C   0  0  0  0  0  4           0  0  0
  -10.8376    1.4994    2.0565 C   0  0  0  0  0  4           0  0  0
    6.1998    4.2795    0.0000 C   0  0  2  0  0  4           0  0  0
   -0.7940   -0.0084    3.5481 C   0  0  0  0  0  4           0  0  0
    6.2944    2.2987   -1.2074 C   0  0  0  0  0  4           0  0  0
    4.2509    2.7804    0.0000 C   0  0  0  0  0  4           0  0  0
   -9.5657    1.7117    2.8451 C   0  0  0  0  0  4           0  0  0
    1.5026   -0.0000    0.0000 C   0  0  0  0  0  4           0  0  0
    7.6657    4.1118   -0.3906 C   0  0  0  0  0  4           0  0  0
    7.7201    2.8269   -1.2068 C   0  0  0  0  0  4           0  0  0
    3.6384    1.3728   -0.0000 C   0  0  0  0  0  4           0  0  0
    2.1122    1.4009    0.0000 C   0  0  0  0  0  4           0  0  0
  1 16  1  0     0  0
  1 17  1  0     0  0
  2  4  2  0     0  0
  2  5  1  0     0  0
  2  6  1  0     0  0
  2  7  1  0     0  0
  3 18  1  0     0  0
  5 34  1  0     0  0
  8 19  1  0     0  0
  8 35  1  0     0  0
  9 33  2  0     0  0
 10 16  2  0     0  0
 10 23  1  0     0  0
 11 20  1  0     0  0
 11 21  2  0     0  0
 12 20  2  0     0  0
 12 22  1  0     0  0
 13 16  1  0     0  0
 13 21  1  0     0  0
 14 24  1  0     0  0
 14 33  1  0     0  0
 15 34  1  0     0  0
 15 36  1  0     0  0
 15 37  1  0     0  0
 17 23  2  0     0  0
 17 38  1  0     0  0
 18 27  1  0     0  0
 18 28  2  0     0  0
 19 26  2  0     0  0
 19 29  1  0     0  0
 21 25  1  0     0  0
 22 25  1  0     0  0
 22 30  2  0     0  0
 24 27  2  0     0  0
 24 31  1  0     0  0
 25 29  2  0     0  0
 26 30  1  0     0  0
 26 39  1  0     0  0
 28 32  1  0     0  0
 31 32  2  0     0  0
 33 38  1  0     0  0
 34 40  1  0     0  0
 36 41  1  0     0  0
 37 42  1  0     0  0
 39 43  1  0     0  0
 40 41  1  0     0  0
 42 43  1  0     0  0
M  END
> <standard_type>
pIC50

> <# Confs.>
25

> <canonical_smiles>
FC1=CC=CC(NC(CC2=CN=C(NC3=NC=NC4=CC(CCCCN5[C@@H](OP(O)(O)=O)CCC5)=C(OC)C=C34)S2)=O)=C1

> <standard_relation>
=

> <Publication_ID>
nan

> <predicted_activity_value>
8.09151498112135

> <actual_activity_value>
8.045757490560675

> <Compound>
7

> <standard_units>
nM

> hash
12078469371866150626

$$$$
6
XXILIB    08252103493D 0   0.00000     0.00000

 43 47  0     1  0            999 V2000
   -7.0859    0.4569    2.5689 S   0  0  0  0  0  2           0  0  0
    4.5241    7.3603   -0.1011 P   0  0  2  0  0  5           0  0  0
  -11.1268    8.1907    2.1937 F   0  0  0  0  0  1           0  0  0
    4.5386    8.2216    1.1281 O   0  0  0  0  0  2           0  0  0
    3.9346    5.8679    0.1039 O   0  0  0  0  0  2           0  0  0
    5.9764    7.1076   -0.7682 O   0  0  0  0  0  2           0  0  0
    3.6496    7.9390   -1.3317 O   0  0  0  0  0  2           0  0  0
   -0.0206   -0.0086    2.3507 O   0  0  0  0  0  2           0  0  0
  -10.7120    3.5660    1.8437 O   0  0  0  0  0  2           0  0  0
   -6.9561    1.3095    0.1462 N   0  0  0  0  0  3           0  0  0
   -4.8122    0.0907   -1.5006 N   0  0  0  0  0  3           0  0  0
   -2.6438    0.0749   -2.5208 N   0  0  0  0  0  3           0  0  0
   -5.0674    0.0335    0.8730 N   0  0  0  0  0  3           0  0  0
   -9.2537    3.9819    3.6042 N   0  0  0  0  0  3           0  0  0
    3.9314    3.6673    1.1204 N   0  0  2  0  0  3           0  0  0
   -6.2835    0.6118    1.0418 C   0  0  0  0  0  4           0  0  0
   -8.3940    1.3972    1.9888 C   0  0  0  0  0  4           0  0  0
  -10.3182    7.4931    3.0040 C   0  0  0  0  0  4           0  0  0
   -0.7396    0.0000    1.1890 C   0  0  0  0  0  4           0  0  0
   -3.9835    0.1031   -2.5532 C   0  0  0  0  0  4           0  0  0
   -4.2385    0.0299   -0.2728 C   0  0  0  0  0  4           0  0  0
   -2.0729    0.0407   -1.3096 C   0  0  0  0  0  4           0  0  0
   -8.1475    1.7553    0.6808 C   0  0  0  0  0  4           0  0  0
   -9.3864    5.3802    3.6993 C   0  0  0  0  0  4           0  0  0
   -2.8269    0.0244   -0.1214 C   0  0  0  0  0  4           0  0  0
    0.0000    0.0000    0.0000 C   0  0  0  0  0  4           0  0  0
  -10.2330    6.1097    2.8575 C   0  0  0  0  0  4           0  0  0
   -9.5788    8.1635    3.9734 C   0  0  0  0  0  4           0  0  0
   -2.1386    0.0113    1.1207 C   0  0  0  0  0  4           0  0  0
   -0.6840    0.0269   -1.2262 C   0  0  0  0  0  4           0  0  0
   -8.6380    6.0506    4.6758 C   0  0  0  0  0  4           0  0  0
   -8.7361    7.4377    4.8118 C   0  0  0  0  0  4           0  0  0
   -9.9187    3.1741    2.6989 C   0  0  0  0  0  4           0  0  0
    4.5646    4.9911    1.0296 C   0  0  2  0  0  4           0  0  0
   -0.7940   -0.0084    3.5481 C   0  0  0  0  0  4           0  0  0
    4.4116    3.1180    2.3929 C   0  0  0  0  0  4           0  0  0
    4.2509    2.7804   -0.0000 C   0  0  0  0  0  4           0  0  0
   -9.5657    1.7117    2.8451 C   0  0  0  0  0  4           0  0  0
    1.5026    0.0000   -0.0000 C   0  0  0  0  0  4           0  0  0
    4.3999    5.5329    2.4469 C   0  0  0  0  0  4           0  0  0
    4.3286    4.3026    3.3422 C   0  0  0  0  0  4           0  0  0
    3.6384    1.3728   -0.0000 C   0  0  0  0  0  4           0  0  0
    2.1122    1.4009    0.0000 C   0  0  0  0  0  4           0  0  0
  1 16  1  0     0  0
  1 17  1  0     0  0
  2  4  2  0     0  0
  2  5  1  0     0  0
  2  6  1  0     0  0
  2  7  1  0     0  0
  3 18  1  0     0  0
  5 34  1  0     0  0
  8 19  1  0     0  0
  8 35  1  0     0  0
  9 33  2  0     0  0
 10 16  2  0     0  0
 10 23  1  0     0  0
 11 20  1  0     0  0
 11 21  2  0     0  0
 12 20  2  0     0  0
 12 22  1  0     0  0
 13 16  1  0     0  0
 13 21  1  0     0  0
 14 24  1  0     0  0
 14 33  1  0     0  0
 15 34  1  0     0  0
 15 36  1  0     0  0
 15 37  1  0     0  0
 17 23  2  0     0  0
 17 38  1  0     0  0
 18 27  1  0     0  0
 18 28  2  0     0  0
 19 26  2  0     0  0
 19 29  1  0     0  0
 21 25  1  0     0  0
 22 25  1  0     0  0
 22 30  2  0     0  0
 24 27  2  0     0  0
 24 31  1  0     0  0
 25 29  2  0     0  0
 26 30  1  0     0  0
 26 39  1  0     0  0
 28 32  1  0     0  0
 31 32  2  0     0  0
 33 38  1  0     0  0
 34 40  1  0     0  0
 36 41  1  0     0  0
 37 42  1  0     0  0
 39 43  1  0     0  0
 40 41  1  0     0  0
 42 43  1  0     0  0
M  END
> <standard_type>
pIC50

> <# Confs.>
25

> <canonical_smiles>
FC1=CC=CC(NC(CC2=CN=C(NC3=NC=NC4=CC(CCCCN5[C@@H](OP(O)(O)=O)CCC5)=C(OC)C=C34)S2)=O)=C1

> <standard_relation>
=

> <Publication_ID>
nan

> <predicted_activity_value>
8.09151498112135

> <actual_activity_value>
8.045757490560675

> <Compound>
7

> <standard_units>
nM

> hash
12078469371866150626

$$$$
6
XXILIB    08252103493D 0   0.00000     0.00000

 43 47  0     1  0            999 V2000
   -7.0859    0.4569    2.5689 S   0  0  0  0  0  2           0  0  0
    4.5241    7.3603   -0.1011 P   0  0  2  0  0  5           0  0  0
   -8.4449    7.4312    6.1421 F   0  0  0  0  0  1           0  0  0
    4.5386    8.2216    1.1281 O   0  0  0  0  0  2           0  0  0
    3.9346    5.8679    0.1039 O   0  0  0  0  0  2           0  0  0
    5.9764    7.1076   -0.7682 O   0  0  0  0  0  2           0  0  0
    3.6496    7.9390   -1.3317 O   0  0  0  0  0  2           0  0  0
   -0.0206   -0.0086    2.3507 O   0  0  0  0  0  2           0  0  0
   -9.6365    4.0936    3.1216 O   0  0  0  0  0  2           0  0  0
   -6.9561    1.3095    0.1462 N   0  0  0  0  0  3           0  0  0
   -4.8122    0.0907   -1.5006 N   0  0  0  0  0  3           0  0  0
   -2.6438    0.0749   -2.5208 N   0  0  0  0  0  3           0  0  0
   -5.0674    0.0335    0.8730 N   0  0  0  0  0  3           0  0  0
   -8.6884    2.8079    4.8088 N   0  0  0  0  0  3           0  0  0
    3.9314    3.6673    1.1204 N   0  0  2  0  0  3           0  0  0
   -6.2835    0.6118    1.0418 C   0  0  0  0  0  4           0  0  0
   -8.3940    1.3972    1.9888 C   0  0  0  0  0  4           0  0  0
   -8.2053    6.1363    6.3931 C   0  0  0  0  0  4           0  0  0
   -0.7396    0.0000    1.1890 C   0  0  0  0  0  4           0  0  0
   -3.9835    0.1031   -2.5532 C   0  0  0  0  0  4           0  0  0
   -4.2385    0.0299   -0.2728 C   0  0  0  0  0  4           0  0  0
   -2.0729    0.0407   -1.3096 C   0  0  0  0  0  4           0  0  0
   -8.1475    1.7553    0.6808 C   0  0  0  0  0  4           0  0  0
   -8.3315    3.8260    5.7133 C   0  0  0  0  0  4           0  0  0
   -2.8269    0.0244   -0.1214 C   0  0  0  0  0  4           0  0  0
    0.0000    0.0000    0.0000 C   0  0  0  0  0  4           0  0  0
   -8.5845    5.1776    5.4553 C   0  0  0  0  0  4           0  0  0
   -7.5814    5.7753    7.5831 C   0  0  0  0  0  4           0  0  0
   -2.1386    0.0113    1.1207 C   0  0  0  0  0  4           0  0  0
   -0.6840    0.0269   -1.2262 C   0  0  0  0  0  4           0  0  0
   -7.7016    3.4571    6.9092 C   0  0  0  0  0  4           0  0  0
   -7.3296    4.4299    7.8406 C   0  0  0  0  0  4           0  0  0
   -9.3136    3.0025    3.5900 C   0  0  0  0  0  4           0  0  0
    4.5646    4.9911    1.0296 C   0  0  2  0  0  4           0  0  0
   -0.7940   -0.0084    3.5481 C   0  0  0  0  0  4           0  0  0
    4.4116    3.1180    2.3929 C   0  0  0  0  0  4           0  0  0
    4.2509    2.7804   -0.0000 C   0  0  0  0  0  4           0  0  0
   -9.5657    1.7117    2.8451 C   0  0  0  0  0  4           0  0  0
    1.5026    0.0000   -0.0000 C   0  0  0  0  0  4           0  0  0
    4.3999    5.5329    2.4469 C   0  0  0  0  0  4           0  0  0
    4.3286    4.3026    3.3422 C   0  0  0  0  0  4           0  0  0
    3.6384    1.3728   -0.0000 C   0  0  0  0  0  4           0  0  0
    2.1122    1.4009    0.0000 C   0  0  0  0  0  4           0  0  0
  1 16  1  0     0  0
  1 17  1  0     0  0
  2  4  2  0     0  0
  2  5  1  0     0  0
  2  6  1  0     0  0
  2  7  1  0     0  0
  3 18  1  0     0  0
  5 34  1  0     0  0
  8 19  1  0     0  0
  8 35  1  0     0  0
  9 33  2  0     0  0
 10 16  2  0     0  0
 10 23  1  0     0  0
 11 20  1  0     0  0
 11 21  2  0     0  0
 12 20  2  0     0  0
 12 22  1  0     0  0
 13 16  1  0     0  0
 13 21  1  0     0  0
 14 24  1  0     0  0
 14 33  1  0     0  0
 15 34  1  0     0  0
 15 36  1  0     0  0
 15 37  1  0     0  0
 17 23  2  0     0  0
 17 38  1  0     0  0
 18 27  1  0     0  0
 18 28  2  0     0  0
 19 26  2  0     0  0
 19 29  1  0     0  0
 21 25  1  0     0  0
 22 25  1  0     0  0
 22 30  2  0     0  0
 24 27  2  0     0  0
 24 31  1  0     0  0
 25 29  2  0     0  0
 26 30  1  0     0  0
 26 39  1  0     0  0
 28 32  1  0     0  0
 31 32  2  0     0  0
 33 38  1  0     0  0
 34 40  1  0     0  0
 36 41  1  0     0  0
 37 42  1  0     0  0
 39 43  1  0     0  0
 40 41  1  0     0  0
 42 43  1  0     0  0
M  END
> <standard_type>
pIC50

> <# Confs.>
25

> <canonical_smiles>
FC1=CC=CC(NC(CC2=CN=C(NC3=NC=NC4=CC(CCCCN5[C@@H](OP(O)(O)=O)CCC5)=C(OC)C=C34)S2)=O)=C1

> <standard_relation>
=

> <Publication_ID>
nan

> <predicted_activity_value>
8.09151498112135

> <actual_activity_value>
8.045757490560675

> <Compound>
7

> <standard_units>
nM

> hash
12078469371866150626

$$$$
6
XXILIB    08252103493D 0   0.00000     0.00000

 43 47  0     1  0            999 V2000
   -7.0859    0.4569    2.5689 S   0  0  0  0  0  2           0  0  0
    6.6127    6.4514    1.4162 P   0  0  2  0  0  5           0  0  0
  -14.2086   -3.0592    2.1221 F   0  0  0  0  0  1           0  0  0
    8.0577    6.6904    1.0877 O   0  0  0  0  0  2           0  0  0
    6.1105    4.9211    1.2661 O   0  0  0  0  0  2           0  0  0
    5.5650    7.2866    0.5092 O   0  0  0  0  0  2           0  0  0
    6.1815    6.8373    2.9259 O   0  0  0  0  0  2           0  0  0
   -0.0206   -0.0086    2.3507 O   0  0  0  0  0  2           0  0  0
  -11.4924    0.7113    1.8240 O   0  0  0  0  0  2           0  0  0
   -6.9561    1.3095    0.1462 N   0  0  0  0  0  3           0  0  0
   -4.8122    0.0907   -1.5006 N   0  0  0  0  0  3           0  0  0
   -2.6438    0.0749   -2.5208 N   0  0  0  0  0  3           0  0  0
   -5.0674    0.0335    0.8730 N   0  0  0  0  0  3           0  0  0
  -10.4687   -0.3998    3.5894 N   0  0  0  0  0  3           0  0  0
    5.7109    2.8930   -0.0000 N   0  0  2  0  0  3           0  0  0
   -6.2835    0.6118    1.0418 C   0  0  0  0  0  4           0  0  0
   -8.3940    1.3972    1.9888 C   0  0  0  0  0  4           0  0  0
  -13.1659   -2.8759    2.9445 C   0  0  0  0  0  4           0  0  0
   -0.7396    0.0000    1.1890 C   0  0  0  0  0  4           0  0  0
   -3.9835    0.1031   -2.5532 C   0  0  0  0  0  4           0  0  0
   -4.2385    0.0299   -0.2728 C   0  0  0  0  0  4           0  0  0
   -2.0729    0.0407   -1.3096 C   0  0  0  0  0  4           0  0  0
   -8.1475    1.7553    0.6808 C   0  0  0  0  0  4           0  0  0
  -11.2979   -1.5346    3.6707 C   0  0  0  0  0  4           0  0  0
   -2.8269    0.0244   -0.1214 C   0  0  0  0  0  4           0  0  0
    0.0000    0.0000    0.0000 C   0  0  0  0  0  4           0  0  0
  -12.3840   -1.7300    2.8106 C   0  0  0  0  0  4           0  0  0
  -12.8861   -3.8315    3.9162 C   0  0  0  0  0  4           0  0  0
   -2.1386    0.0113    1.1207 C   0  0  0  0  0  4           0  0  0
   -0.6840    0.0269   -1.2262 C   0  0  0  0  0  4           0  0  0
  -11.0130   -2.4928    4.6523 C   0  0  0  0  0  4           0  0  0
  -11.8049   -3.6378    4.7724 C   0  0  0  0  0  4           0  0  0
  -10.6131    0.6341    2.6814 C   0  0  0  0  0  4           0  0  0
    6.1998    4.2795    0.0000 C   0  0  2  0  0  4           0  0  0
   -0.7940   -0.0084    3.5481 C   0  0  0  0  0  4           0  0  0
    6.2944    2.2987   -1.2074 C   0  0  0  0  0  4           0  0  0
    4.2509    2.7804    0.0000 C   0  0  0  0  0  4           0  0  0
   -9.5657    1.7117    2.8451 C   0  0  0  0  0  4           0  0  0
    1.5026   -0.0000    0.0000 C   0  0  0  0  0  4           0  0  0
    7.6657    4.1118   -0.3906 C   0  0  0  0  0  4           0  0  0
    7.7201    2.8269   -1.2068 C   0  0  0  0  0  4           0  0  0
    3.6384    1.3728   -0.0000 C   0  0  0  0  0  4           0  0  0
    2.1122    1.4009    0.0000 C   0  0  0  0  0  4           0  0  0
  1 16  1  0     0  0
  1 17  1  0     0  0
  2  4  2  0     0  0
  2  5  1  0     0  0
  2  6  1  0     0  0
  2  7  1  0     0  0
  3 18  1  0     0  0
  5 34  1  0     0  0
  8 19  1  0     0  0
  8 35  1  0     0  0
  9 33  2  0     0  0
 10 16  2  0     0  0
 10 23  1  0     0  0
 11 20  1  0     0  0
 11 21  2  0     0  0
 12 20  2  0     0  0
 12 22  1  0     0  0
 13 16  1  0     0  0
 13 21  1  0     0  0
 14 24  1  0     0  0
 14 33  1  0     0  0
 15 34  1  0     0  0
 15 36  1  0     0  0
 15 37  1  0     0  0
 17 23  2  0     0  0
 17 38  1  0     0  0
 18 27  1  0     0  0
 18 28  2  0     0  0
 19 26  2  0     0  0
 19 29  1  0     0  0
 21 25  1  0     0  0
 22 25  1  0     0  0
 22 30  2  0     0  0
 24 27  2  0     0  0
 24 31  1  0     0  0
 25 29  2  0     0  0
 26 30  1  0     0  0
 26 39  1  0     0  0
 28 32  1  0     0  0
 31 32  2  0     0  0
 33 38  1  0     0  0
 34 40  1  0     0  0
 36 41  1  0     0  0
 37 42  1  0     0  0
 39 43  1  0     0  0
 40 41  1  0     0  0
 42 43  1  0     0  0
M  END
> <standard_type>
pIC50

> <# Confs.>
25

> <canonical_smiles>
FC1=CC=CC(NC(CC2=CN=C(NC3=NC=NC4=CC(CCCCN5[C@@H](OP(O)(O)=O)CCC5)=C(OC)C=C34)S2)=O)=C1

> <standard_relation>
=

> <Publication_ID>
nan

> <predicted_activity_value>
8.09151498112135

> <actual_activity_value>
8.045757490560675

> <Compound>
7

> <standard_units>
nM

> hash
12078469371866150626

$$$$
6
XXILIB    08252103493D 0   0.00000     0.00000

 43 47  0     1  0            999 V2000
   -7.0859    0.4569    2.5689 S   0  0  0  0  0  2           0  0  0
    6.6127   -6.4514   -1.4162 P   0  0  2  0  0  5           0  0  0
  -15.2028    0.7735   -0.6453 F   0  0  0  0  0  1           0  0  0
    8.0577   -6.6904   -1.0877 O   0  0  0  0  0  2           0  0  0
    6.1105   -4.9211   -1.2661 O   0  0  0  0  0  2           0  0  0
    5.5650   -7.2866   -0.5092 O   0  0  0  0  0  2           0  0  0
    6.1815   -6.8373   -2.9259 O   0  0  0  0  0  2           0  0  0
   -0.0206   -0.0086    2.3507 O   0  0  0  0  0  2           0  0  0
  -11.3494    2.4043    1.3981 O   0  0  0  0  0  2           0  0  0
   -6.9561    1.3095    0.1462 N   0  0  0  0  0  3           0  0  0
   -4.8122    0.0907   -1.5006 N   0  0  0  0  0  3           0  0  0
   -2.6438    0.0749   -2.5208 N   0  0  0  0  0  3           0  0  0
   -5.0674    0.0335    0.8730 N   0  0  0  0  0  3           0  0  0
  -11.3372    0.2147    2.1755 N   0  0  0  0  0  3           0  0  0
    5.7109   -2.8930    0.0000 N   0  0  2  0  0  3           0  0  0
   -6.2835    0.6118    1.0418 C   0  0  0  0  0  4           0  0  0
   -8.3940    1.3972    1.9888 C   0  0  0  0  0  4           0  0  0
  -14.4423   -0.0001    0.1422 C   0  0  0  0  0  4           0  0  0
   -0.7396    0.0000    1.1890 C   0  0  0  0  0  4           0  0  0
   -3.9835    0.1031   -2.5532 C   0  0  0  0  0  4           0  0  0
   -4.2385    0.0299   -0.2728 C   0  0  0  0  0  4           0  0  0
   -2.0729    0.0407   -1.3096 C   0  0  0  0  0  4           0  0  0
   -8.1475    1.7553    0.6808 C   0  0  0  0  0  4           0  0  0
  -12.5050   -0.2664    1.5535 C   0  0  0  0  0  4           0  0  0
   -2.8269    0.0244   -0.1214 C   0  0  0  0  0  4           0  0  0
    0.0000    0.0000    0.0000 C   0  0  0  0  0  4           0  0  0
  -13.2977    0.5380    0.7277 C   0  0  0  0  0  4           0  0  0
  -14.8113   -1.3236    0.3612 C   0  0  0  0  0  4           0  0  0
   -2.1386    0.0113    1.1207 C   0  0  0  0  0  4           0  0  0
   -0.6840    0.0269   -1.2262 C   0  0  0  0  0  4           0  0  0
  -12.8732   -1.5993    1.7790 C   0  0  0  0  0  4           0  0  0
  -14.0224   -2.1249    1.1829 C   0  0  0  0  0  4           0  0  0
  -10.8376    1.4994    2.0565 C   0  0  0  0  0  4           0  0  0
    6.1998   -4.2795    0.0000 C   0  0  2  0  0  4           0  0  0
   -0.7940   -0.0084    3.5481 C   0  0  0  0  0  4           0  0  0
    6.2944   -2.2987    1.2074 C   0  0  0  0  0  4           0  0  0
    4.2509   -2.7804    0.0000 C   0  0  0  0  0  4           0  0  0
   -9.5657    1.7117    2.8451 C   0  0  0  0  0  4           0  0  0
    1.5026   -0.0000   -0.0000 C   0  0  0  0  0  4           0  0  0
    7.6657   -4.1118    0.3906 C   0  0  0  0  0  4           0  0  0
    7.7201   -2.8269    1.2068 C   0  0  0  0  0  4           0  0  0
    3.6384   -1.3728    0.0000 C   0  0  0  0  0  4           0  0  0
    2.1122   -1.4009    0.0000 C   0  0  0  0  0  4           0  0  0
  1 16  1  0     0  0
  1 17  1  0     0  0
  2  4  2  0     0  0
  2  5  1  0     0  0
  2  6  1  0     0  0
  2  7  1  0     0  0
  3 18  1  0     0  0
  5 34  1  0     0  0
  8 19  1  0     0  0
  8 35  1  0     0  0
  9 33  2  0     0  0
 10 16  2  0     0  0
 10 23  1  0     0  0
 11 20  1  0     0  0
 11 21  2  0     0  0
 12 20  2  0     0  0
 12 22  1  0     0  0
 13 16  1  0     0  0
 13 21  1  0     0  0
 14 24  1  0     0  0
 14 33  1  0     0  0
 15 34  1  0     0  0
 15 36  1  0     0  0
 15 37  1  0     0  0
 17 23  2  0     0  0
 17 38  1  0     0  0
 18 27  1  0     0  0
 18 28  2  0     0  0
 19 26  2  0     0  0
 19 29  1  0     0  0
 21 25  1  0     0  0
 22 25  1  0     0  0
 22 30  2  0     0  0
 24 27  2  0     0  0
 24 31  1  0     0  0
 25 29  2  0     0  0
 26 30  1  0     0  0
 26 39  1  0     0  0
 28 32  1  0     0  0
 31 32  2  0     0  0
 33 38  1  0     0  0
 34 40  1  0     0  0
 36 41  1  0     0  0
 37 42  1  0     0  0
 39 43  1  0     0  0
 40 41  1  0     0  0
 42 43  1  0     0  0
M  END
> <standard_type>
pIC50

> <# Confs.>
25

> <canonical_smiles>
FC1=CC=CC(NC(CC2=CN=C(NC3=NC=NC4=CC(CCCCN5[C@@H](OP(O)(O)=O)CCC5)=C(OC)C=C34)S2)=O)=C1

> <standard_relation>
=

> <Publication_ID>
nan

> <predicted_activity_value>
8.09151498112135

> <actual_activity_value>
8.045757490560675

> <Compound>
7

> <standard_units>
nM

> hash
12078469371866150626

$$$$
6
XXILIB    08252103493D 0   0.00000     0.00000

 43 47  0     1  0            999 V2000
   -7.0859    0.4569    2.5689 S   0  0  0  0  0  2           0  0  0
    4.5241    7.3603   -0.1011 P   0  0  2  0  0  5           0  0  0
   -8.4522    7.4295    6.1476 F   0  0  0  0  0  1           0  0  0
    4.5386    8.2216    1.1281 O   0  0  0  0  0  2           0  0  0
    3.9346    5.8679    0.1039 O   0  0  0  0  0  2           0  0  0
    5.9764    7.1076   -0.7682 O   0  0  0  0  0  2           0  0  0
    3.6496    7.9390   -1.3317 O   0  0  0  0  0  2           0  0  0
   -0.0206   -0.0086    2.3507 O   0  0  0  0  0  2           0  0  0
   -8.7747    3.0167    4.6962 O   0  0  0  0  0  2           0  0  0
   -6.9561    1.3095    0.1462 N   0  0  0  0  0  3           0  0  0
   -4.8122    0.0907   -1.5006 N   0  0  0  0  0  3           0  0  0
   -2.6438    0.0749   -2.5208 N   0  0  0  0  0  3           0  0  0
   -5.0674    0.0335    0.8730 N   0  0  0  0  0  3           0  0  0
   -9.7590    4.1173    2.9021 N   0  0  0  0  0  3           0  0  0
    3.9314    3.6673    1.1204 N   0  0  2  0  0  3           0  0  0
   -6.2835    0.6118    1.0418 C   0  0  0  0  0  4           0  0  0
   -8.3940    1.3972    1.9888 C   0  0  0  0  0  4           0  0  0
   -9.0061    7.1151    4.9680 C   0  0  0  0  0  4           0  0  0
   -0.7396    0.0000    1.1890 C   0  0  0  0  0  4           0  0  0
   -3.9835    0.1031   -2.5532 C   0  0  0  0  0  4           0  0  0
   -4.2385    0.0299   -0.2728 C   0  0  0  0  0  4           0  0  0
   -2.0729    0.0407   -1.3096 C   0  0  0  0  0  4           0  0  0
   -8.1475    1.7553    0.6808 C   0  0  0  0  0  4           0  0  0
   -9.6571    5.4472    3.3524 C   0  0  0  0  0  4           0  0  0
   -2.8269    0.0244   -0.1214 C   0  0  0  0  0  4           0  0  0
    0.0000    0.0000    0.0000 C   0  0  0  0  0  4           0  0  0
   -9.0754    5.7779    4.5811 C   0  0  0  0  0  4           0  0  0
   -9.5025    8.1288    4.1546 C   0  0  0  0  0  4           0  0  0
   -2.1386    0.0113    1.1207 C   0  0  0  0  0  4           0  0  0
   -0.6840    0.0269   -1.2262 C   0  0  0  0  0  4           0  0  0
  -10.1605    6.4641    2.5303 C   0  0  0  0  0  4           0  0  0
  -10.0814    7.8002    2.9312 C   0  0  0  0  0  4           0  0  0
   -9.3136    3.0025    3.5900 C   0  0  0  0  0  4           0  0  0
    4.5646    4.9911    1.0296 C   0  0  2  0  0  4           0  0  0
   -0.7940   -0.0084    3.5481 C   0  0  0  0  0  4           0  0  0
    4.4116    3.1180    2.3929 C   0  0  0  0  0  4           0  0  0
    4.2509    2.7804   -0.0000 C   0  0  0  0  0  4           0  0  0
   -9.5657    1.7117    2.8451 C   0  0  0  0  0  4           0  0  0
    1.5026    0.0000   -0.0000 C   0  0  0  0  0  4           0  0  0
    4.3999    5.5329    2.4469 C   0  0  0  0  0  4           0  0  0
    4.3286    4.3026    3.3422 C   0  0  0  0  0  4           0  0  0
    3.6384    1.3728   -0.0000 C   0  0  0  0  0  4           0  0  0
    2.1122    1.4009    0.0000 C   0  0  0  0  0  4           0  0  0
  1 16  1  0     0  0
  1 17  1  0     0  0
  2  4  2  0     0  0
  2  5  1  0     0  0
  2  6  1  0     0  0
  2  7  1  0     0  0
  3 18  1  0     0  0
  5 34  1  0     0  0
  8 19  1  0     0  0
  8 35  1  0     0  0
  9 33  2  0     0  0
 10 16  2  0     0  0
 10 23  1  0     0  0
 11 20  1  0     0  0
 11 21  2  0     0  0
 12 20  2  0     0  0
 12 22  1  0     0  0
 13 16  1  0     0  0
 13 21  1  0     0  0
 14 24  1  0     0  0
 14 33  1  0     0  0
 15 34  1  0     0  0
 15 36  1  0     0  0
 15 37  1  0     0  0
 17 23  2  0     0  0
 17 38  1  0     0  0
 18 27  1  0     0  0
 18 28  2  0     0  0
 19 26  2  0     0  0
 19 29  1  0     0  0
 21 25  1  0     0  0
 22 25  1  0     0  0
 22 30  2  0     0  0
 24 27  2  0     0  0
 24 31  1  0     0  0
 25 29  2  0     0  0
 26 30  1  0     0  0
 26 39  1  0     0  0
 28 32  1  0     0  0
 31 32  2  0     0  0
 33 38  1  0     0  0
 34 40  1  0     0  0
 36 41  1  0     0  0
 37 42  1  0     0  0
 39 43  1  0     0  0
 40 41  1  0     0  0
 42 43  1  0     0  0
M  END
> <standard_type>
pIC50

> <# Confs.>
25

> <canonical_smiles>
FC1=CC=CC(NC(CC2=CN=C(NC3=NC=NC4=CC(CCCCN5[C@@H](OP(O)(O)=O)CCC5)=C(OC)C=C34)S2)=O)=C1

> <standard_relation>
=

> <Publication_ID>
nan

> <predicted_activity_value>
8.09151498112135

> <actual_activity_value>
8.045757490560675

> <Compound>
7

> <standard_units>
nM

> hash
12078469371866150626

$$$$
6
XXILIB    08252103493D 0   0.00000     0.00000

 43 47  0     1  0            999 V2000
   -7.0859    0.4569    2.5689 S   0  0  0  0  0  2           0  0  0
    6.6127   -6.4514   -1.4162 P   0  0  2  0  0  5           0  0  0
  -14.2086   -3.0592    2.1221 F   0  0  0  0  0  1           0  0  0
    8.0577   -6.6904   -1.0877 O   0  0  0  0  0  2           0  0  0
    6.1105   -4.9211   -1.2661 O   0  0  0  0  0  2           0  0  0
    5.5650   -7.2866   -0.5092 O   0  0  0  0  0  2           0  0  0
    6.1815   -6.8373   -2.9259 O   0  0  0  0  0  2           0  0  0
   -0.0206   -0.0086    2.3507 O   0  0  0  0  0  2           0  0  0
  -11.4924    0.7113    1.8240 O   0  0  0  0  0  2           0  0  0
   -6.9561    1.3095    0.1462 N   0  0  0  0  0  3           0  0  0
   -4.8122    0.0907   -1.5006 N   0  0  0  0  0  3           0  0  0
   -2.6438    0.0749   -2.5208 N   0  0  0  0  0  3           0  0  0
   -5.0674    0.0335    0.8730 N   0  0  0  0  0  3           0  0  0
  -10.4687   -0.3998    3.5894 N   0  0  0  0  0  3           0  0  0
    5.7109   -2.8930    0.0000 N   0  0  2  0  0  3           0  0  0
   -6.2835    0.6118    1.0418 C   0  0  0  0  0  4           0  0  0
   -8.3940    1.3972    1.9888 C   0  0  0  0  0  4           0  0  0
  -13.1659   -2.8759    2.9445 C   0  0  0  0  0  4           0  0  0
   -0.7396    0.0000    1.1890 C   0  0  0  0  0  4           0  0  0
   -3.9835    0.1031   -2.5532 C   0  0  0  0  0  4           0  0  0
   -4.2385    0.0299   -0.2728 C   0  0  0  0  0  4           0  0  0
   -2.0729    0.0407   -1.3096 C   0  0  0  0  0  4           0  0  0
   -8.1475    1.7553    0.6808 C   0  0  0  0  0  4           0  0  0
  -11.2979   -1.5346    3.6707 C   0  0  0  0  0  4           0  0  0
   -2.8269    0.0244   -0.1214 C   0  0  0  0  0  4           0  0  0
    0.0000    0.0000    0.0000 C   0  0  0  0  0  4           0  0  0
  -12.3840   -1.7300    2.8106 C   0  0  0  0  0  4           0  0  0
  -12.8861   -3.8315    3.9162 C   0  0  0  0  0  4           0  0  0
   -2.1386    0.0113    1.1207 C   0  0  0  0  0  4           0  0  0
   -0.6840    0.0269   -1.2262 C   0  0  0  0  0  4           0  0  0
  -11.0130   -2.4928    4.6523 C   0  0  0  0  0  4           0  0  0
  -11.8049   -3.6378    4.7724 C   0  0  0  0  0  4           0  0  0
  -10.6131    0.6341    2.6814 C   0  0  0  0  0  4           0  0  0
    6.1998   -4.2795    0.0000 C   0  0  2  0  0  4           0  0  0
   -0.7940   -0.0084    3.5481 C   0  0  0  0  0  4           0  0  0
    6.2944   -2.2987    1.2074 C   0  0  0  0  0  4           0  0  0
    4.2509   -2.7804    0.0000 C   0  0  0  0  0  4           0  0  0
   -9.5657    1.7117    2.8451 C   0  0  0  0  0  4           0  0  0
    1.5026   -0.0000   -0.0000 C   0  0  0  0  0  4           0  0  0
    7.6657   -4.1118    0.3906 C   0  0  0  0  0  4           0  0  0
    7.7201   -2.8269    1.2068 C   0  0  0  0  0  4           0  0  0
    3.6384   -1.3728    0.0000 C   0  0  0  0  0  4           0  0  0
    2.1122   -1.4009    0.0000 C   0  0  0  0  0  4           0  0  0
  1 16  1  0     0  0
  1 17  1  0     0  0
  2  4  2  0     0  0
  2  5  1  0     0  0
  2  6  1  0     0  0
  2  7  1  0     0  0
  3 18  1  0     0  0
  5 34  1  0     0  0
  8 19  1  0     0  0
  8 35  1  0     0  0
  9 33  2  0     0  0
 10 16  2  0     0  0
 10 23  1  0     0  0
 11 20  1  0     0  0
 11 21  2  0     0  0
 12 20  2  0     0  0
 12 22  1  0     0  0
 13 16  1  0     0  0
 13 21  1  0     0  0
 14 24  1  0     0  0
 14 33  1  0     0  0
 15 34  1  0     0  0
 15 36  1  0     0  0
 15 37  1  0     0  0
 17 23  2  0     0  0
 17 38  1  0     0  0
 18 27  1  0     0  0
 18 28  2  0     0  0
 19 26  2  0     0  0
 19 29  1  0     0  0
 21 25  1  0     0  0
 22 25  1  0     0  0
 22 30  2  0     0  0
 24 27  2  0     0  0
 24 31  1  0     0  0
 25 29  2  0     0  0
 26 30  1  0     0  0
 26 39  1  0     0  0
 28 32  1  0     0  0
 31 32  2  0     0  0
 33 38  1  0     0  0
 34 40  1  0     0  0
 36 41  1  0     0  0
 37 42  1  0     0  0
 39 43  1  0     0  0
 40 41  1  0     0  0
 42 43  1  0     0  0
M  END
> <standard_type>
pIC50

> <# Confs.>
25

> <canonical_smiles>
FC1=CC=CC(NC(CC2=CN=C(NC3=NC=NC4=CC(CCCCN5[C@@H](OP(O)(O)=O)CCC5)=C(OC)C=C34)S2)=O)=C1

> <standard_relation>
=

> <Publication_ID>
nan

> <predicted_activity_value>
8.09151498112135

> <actual_activity_value>
8.045757490560675

> <Compound>
7

> <standard_units>
nM

> hash
12078469371866150626

$$$$
6
XXILIB    08252103493D 0   0.00000     0.00000

 43 47  0     1  0            999 V2000
   -7.0859    0.4569    2.5689 S   0  0  0  0  0  2           0  0  0
    6.6127   -6.4514   -1.4162 P   0  0  2  0  0  5           0  0  0
   -8.4522    7.4295    6.1476 F   0  0  0  0  0  1           0  0  0
    8.0577   -6.6904   -1.0877 O   0  0  0  0  0  2           0  0  0
    6.1105   -4.9211   -1.2661 O   0  0  0  0  0  2           0  0  0
    5.5650   -7.2866   -0.5092 O   0  0  0  0  0  2           0  0  0
    6.1815   -6.8373   -2.9259 O   0  0  0  0  0  2           0  0  0
   -0.0206   -0.0086    2.3507 O   0  0  0  0  0  2           0  0  0
   -8.7747    3.0167    4.6962 O   0  0  0  0  0  2           0  0  0
   -6.9561    1.3095    0.1462 N   0  0  0  0  0  3           0  0  0
   -4.8122    0.0907   -1.5006 N   0  0  0  0  0  3           0  0  0
   -2.6438    0.0749   -2.5208 N   0  0  0  0  0  3           0  0  0
   -5.0674    0.0335    0.8730 N   0  0  0  0  0  3           0  0  0
   -9.7590    4.1173    2.9021 N   0  0  0  0  0  3           0  0  0
    5.7109   -2.8930    0.0000 N   0  0  2  0  0  3           0  0  0
   -6.2835    0.6118    1.0418 C   0  0  0  0  0  4           0  0  0
   -8.3940    1.3972    1.9888 C   0  0  0  0  0  4           0  0  0
   -9.0061    7.1151    4.9680 C   0  0  0  0  0  4           0  0  0
   -0.7396    0.0000    1.1890 C   0  0  0  0  0  4           0  0  0
   -3.9835    0.1031   -2.5532 C   0  0  0  0  0  4           0  0  0
   -4.2385    0.0299   -0.2728 C   0  0  0  0  0  4           0  0  0
   -2.0729    0.0407   -1.3096 C   0  0  0  0  0  4           0  0  0
   -8.1475    1.7553    0.6808 C   0  0  0  0  0  4           0  0  0
   -9.6571    5.4472    3.3524 C   0  0  0  0  0  4           0  0  0
   -2.8269    0.0244   -0.1214 C   0  0  0  0  0  4           0  0  0
    0.0000    0.0000    0.0000 C   0  0  0  0  0  4           0  0  0
   -9.0754    5.7779    4.5811 C   0  0  0  0  0  4           0  0  0
   -9.5025    8.1288    4.1546 C   0  0  0  0  0  4           0  0  0
   -2.1386    0.0113    1.1207 C   0  0  0  0  0  4           0  0  0
   -0.6840    0.0269   -1.2262 C   0  0  0  0  0  4           0  0  0
  -10.1605    6.4641    2.5303 C   0  0  0  0  0  4           0  0  0
  -10.0814    7.8002    2.9312 C   0  0  0  0  0  4           0  0  0
   -9.3136    3.0025    3.5900 C   0  0  0  0  0  4           0  0  0
    6.1998   -4.2795    0.0000 C   0  0  2  0  0  4           0  0  0
   -0.7940   -0.0084    3.5481 C   0  0  0  0  0  4           0  0  0
    6.2944   -2.2987    1.2074 C   0  0  0  0  0  4           0  0  0
    4.2509   -2.7804    0.0000 C   0  0  0  0  0  4           0  0  0
   -9.5657    1.7117    2.8451 C   0  0  0  0  0  4           0  0  0
    1.5026   -0.0000   -0.0000 C   0  0  0  0  0  4           0  0  0
    7.6657   -4.1118    0.3906 C   0  0  0  0  0  4           0  0  0
    7.7201   -2.8269    1.2068 C   0  0  0  0  0  4           0  0  0
    3.6384   -1.3728    0.0000 C   0  0  0  0  0  4           0  0  0
    2.1122   -1.4009    0.0000 C   0  0  0  0  0  4           0  0  0
  1 16  1  0     0  0
  1 17  1  0     0  0
  2  4  2  0     0  0
  2  5  1  0     0  0
  2  6  1  0     0  0
  2  7  1  0     0  0
  3 18  1  0     0  0
  5 34  1  0     0  0
  8 19  1  0     0  0
  8 35  1  0     0  0
  9 33  2  0     0  0
 10 16  2  0     0  0
 10 23  1  0     0  0
 11 20  1  0     0  0
 11 21  2  0     0  0
 12 20  2  0     0  0
 12 22  1  0     0  0
 13 16  1  0     0  0
 13 21  1  0     0  0
 14 24  1  0     0  0
 14 33  1  0     0  0
 15 34  1  0     0  0
 15 36  1  0     0  0
 15 37  1  0     0  0
 17 23  2  0     0  0
 17 38  1  0     0  0
 18 27  1  0     0  0
 18 28  2  0     0  0
 19 26  2  0     0  0
 19 29  1  0     0  0
 21 25  1  0     0  0
 22 25  1  0     0  0
 22 30  2  0     0  0
 24 27  2  0     0  0
 24 31  1  0     0  0
 25 29  2  0     0  0
 26 30  1  0     0  0
 26 39  1  0     0  0
 28 32  1  0     0  0
 31 32  2  0     0  0
 33 38  1  0     0  0
 34 40  1  0     0  0
 36 41  1  0     0  0
 37 42  1  0     0  0
 39 43  1  0     0  0
 40 41  1  0     0  0
 42 43  1  0     0  0
M  END
> <standard_type>
pIC50

> <# Confs.>
25

> <canonical_smiles>
FC1=CC=CC(NC(CC2=CN=C(NC3=NC=NC4=CC(CCCCN5[C@@H](OP(O)(O)=O)CCC5)=C(OC)C=C34)S2)=O)=C1

> <standard_relation>
=

> <Publication_ID>
nan

> <predicted_activity_value>
8.09151498112135

> <actual_activity_value>
8.045757490560675

> <Compound>
7

> <standard_units>
nM

> hash
12078469371866150626

$$$$
6
XXILIB    08252103493D 0   0.00000     0.00000

 43 47  0     1  0            999 V2000
   -7.0859    0.4569    2.5689 S   0  0  0  0  0  2           0  0  0
    6.6127    6.4514    1.4162 P   0  0  2  0  0  5           0  0  0
   -8.4449    7.4312    6.1421 F   0  0  0  0  0  1           0  0  0
    8.0577    6.6904    1.0877 O   0  0  0  0  0  2           0  0  0
    6.1105    4.9211    1.2661 O   0  0  0  0  0  2           0  0  0
    5.5650    7.2866    0.5092 O   0  0  0  0  0  2           0  0  0
    6.1815    6.8373    2.9259 O   0  0  0  0  0  2           0  0  0
   -0.0206   -0.0086    2.3507 O   0  0  0  0  0  2           0  0  0
   -9.6365    4.0936    3.1216 O   0  0  0  0  0  2           0  0  0
   -6.9561    1.3095    0.1462 N   0  0  0  0  0  3           0  0  0
   -4.8122    0.0907   -1.5006 N   0  0  0  0  0  3           0  0  0
   -2.6438    0.0749   -2.5208 N   0  0  0  0  0  3           0  0  0
   -5.0674    0.0335    0.8730 N   0  0  0  0  0  3           0  0  0
   -8.6884    2.8079    4.8088 N   0  0  0  0  0  3           0  0  0
    5.7109    2.8930   -0.0000 N   0  0  2  0  0  3           0  0  0
   -6.2835    0.6118    1.0418 C   0  0  0  0  0  4           0  0  0
   -8.3940    1.3972    1.9888 C   0  0  0  0  0  4           0  0  0
   -8.2053    6.1363    6.3931 C   0  0  0  0  0  4           0  0  0
   -0.7396    0.0000    1.1890 C   0  0  0  0  0  4           0  0  0
   -3.9835    0.1031   -2.5532 C   0  0  0  0  0  4           0  0  0
   -4.2385    0.0299   -0.2728 C   0  0  0  0  0  4           0  0  0
   -2.0729    0.0407   -1.3096 C   0  0  0  0  0  4           0  0  0
   -8.1475    1.7553    0.6808 C   0  0  0  0  0  4           0  0  0
   -8.3315    3.8260    5.7133 C   0  0  0  0  0  4           0  0  0
   -2.8269    0.0244   -0.1214 C   0  0  0  0  0  4           0  0  0
    0.0000    0.0000    0.0000 C   0  0  0  0  0  4           0  0  0
   -8.5845    5.1776    5.4553 C   0  0  0  0  0  4           0  0  0
   -7.5814    5.7753    7.5831 C   0  0  0  0  0  4           0  0  0
   -2.1386    0.0113    1.1207 C   0  0  0  0  0  4           0  0  0
   -0.6840    0.0269   -1.2262 C   0  0  0  0  0  4           0  0  0
   -7.7016    3.4571    6.9092 C   0  0  0  0  0  4           0  0  0
   -7.3296    4.4299    7.8406 C   0  0  0  0  0  4           0  0  0
   -9.3136    3.0025    3.5900 C   0  0  0  0  0  4           0  0  0
    6.1998    4.2795    0.0000 C   0  0  2  0  0  4           0  0  0
   -0.7940   -0.0084    3.5481 C   0  0  0  0  0  4           0  0  0
    6.2944    2.2987   -1.2074 C   0  0  0  0  0  4           0  0  0
    4.2509    2.7804    0.0000 C   0  0  0  0  0  4           0  0  0
   -9.5657    1.7117    2.8451 C   0  0  0  0  0  4           0  0  0
    1.5026   -0.0000    0.0000 C   0  0  0  0  0  4           0  0  0
    7.6657    4.1118   -0.3906 C   0  0  0  0  0  4           0  0  0
    7.7201    2.8269   -1.2068 C   0  0  0  0  0  4           0  0  0
    3.6384    1.3728   -0.0000 C   0  0  0  0  0  4           0  0  0
    2.1122    1.4009    0.0000 C   0  0  0  0  0  4           0  0  0
  1 16  1  0     0  0
  1 17  1  0     0  0
  2  4  2  0     0  0
  2  5  1  0     0  0
  2  6  1  0     0  0
  2  7  1  0     0  0
  3 18  1  0     0  0
  5 34  1  0     0  0
  8 19  1  0     0  0
  8 35  1  0     0  0
  9 33  2  0     0  0
 10 16  2  0     0  0
 10 23  1  0     0  0
 11 20  1  0     0  0
 11 21  2  0     0  0
 12 20  2  0     0  0
 12 22  1  0     0  0
 13 16  1  0     0  0
 13 21  1  0     0  0
 14 24  1  0     0  0
 14 33  1  0     0  0
 15 34  1  0     0  0
 15 36  1  0     0  0
 15 37  1  0     0  0
 17 23  2  0     0  0
 17 38  1  0     0  0
 18 27  1  0     0  0
 18 28  2  0     0  0
 19 26  2  0     0  0
 19 29  1  0     0  0
 21 25  1  0     0  0
 22 25  1  0     0  0
 22 30  2  0     0  0
 24 27  2  0     0  0
 24 31  1  0     0  0
 25 29  2  0     0  0
 26 30  1  0     0  0
 26 39  1  0     0  0
 28 32  1  0     0  0
 31 32  2  0     0  0
 33 38  1  0     0  0
 34 40  1  0     0  0
 36 41  1  0     0  0
 37 42  1  0     0  0
 39 43  1  0     0  0
 40 41  1  0     0  0
 42 43  1  0     0  0
M  END
> <standard_type>
pIC50

> <# Confs.>
25

> <canonical_smiles>
FC1=CC=CC(NC(CC2=CN=C(NC3=NC=NC4=CC(CCCCN5[C@@H](OP(O)(O)=O)CCC5)=C(OC)C=C34)S2)=O)=C1

> <standard_relation>
=

> <Publication_ID>
nan

> <predicted_activity_value>
8.09151498112135

> <actual_activity_value>
8.045757490560675

> <Compound>
7

> <standard_units>
nM

> hash
12078469371866150626

$$$$
6
XXILIB    08252103493D 0   0.00000     0.00000

 43 47  0     1  0            999 V2000
   -7.0859    0.4569    2.5689 S   0  0  0  0  0  2           0  0  0
    6.6127    6.4514    1.4162 P   0  0  2  0  0  5           0  0  0
  -11.1268    8.1907    2.1937 F   0  0  0  0  0  1           0  0  0
    8.0577    6.6904    1.0877 O   0  0  0  0  0  2           0  0  0
    6.1105    4.9211    1.2661 O   0  0  0  0  0  2           0  0  0
    5.5650    7.2866    0.5092 O   0  0  0  0  0  2           0  0  0
    6.1815    6.8373    2.9259 O   0  0  0  0  0  2           0  0  0
   -0.0206   -0.0086    2.3507 O   0  0  0  0  0  2           0  0  0
  -10.7120    3.5660    1.8437 O   0  0  0  0  0  2           0  0  0
   -6.9561    1.3095    0.1462 N   0  0  0  0  0  3           0  0  0
   -4.8122    0.0907   -1.5006 N   0  0  0  0  0  3           0  0  0
   -2.6438    0.0749   -2.5208 N   0  0  0  0  0  3           0  0  0
   -5.0674    0.0335    0.8730 N   0  0  0  0  0  3           0  0  0
   -9.2537    3.9819    3.6042 N   0  0  0  0  0  3           0  0  0
    5.7109    2.8930   -0.0000 N   0  0  2  0  0  3           0  0  0
   -6.2835    0.6118    1.0418 C   0  0  0  0  0  4           0  0  0
   -8.3940    1.3972    1.9888 C   0  0  0  0  0  4           0  0  0
  -10.3182    7.4931    3.0040 C   0  0  0  0  0  4           0  0  0
   -0.7396    0.0000    1.1890 C   0  0  0  0  0  4           0  0  0
   -3.9835    0.1031   -2.5532 C   0  0  0  0  0  4           0  0  0
   -4.2385    0.0299   -0.2728 C   0  0  0  0  0  4           0  0  0
   -2.0729    0.0407   -1.3096 C   0  0  0  0  0  4           0  0  0
   -8.1475    1.7553    0.6808 C   0  0  0  0  0  4           0  0  0
   -9.3864    5.3802    3.6993 C   0  0  0  0  0  4           0  0  0
   -2.8269    0.0244   -0.1214 C   0  0  0  0  0  4           0  0  0
    0.0000    0.0000    0.0000 C   0  0  0  0  0  4           0  0  0
  -10.2330    6.1097    2.8575 C   0  0  0  0  0  4           0  0  0
   -9.5788    8.1635    3.9734 C   0  0  0  0  0  4           0  0  0
   -2.1386    0.0113    1.1207 C   0  0  0  0  0  4           0  0  0
   -0.6840    0.0269   -1.2262 C   0  0  0  0  0  4           0  0  0
   -8.6380    6.0506    4.6758 C   0  0  0  0  0  4           0  0  0
   -8.7361    7.4377    4.8118 C   0  0  0  0  0  4           0  0  0
   -9.9187    3.1741    2.6989 C   0  0  0  0  0  4           0  0  0
    6.1998    4.2795    0.0000 C   0  0  2  0  0  4           0  0  0
   -0.7940   -0.0084    3.5481 C   0  0  0  0  0  4           0  0  0
    6.2944    2.2987   -1.2074 C   0  0  0  0  0  4           0  0  0
    4.2509    2.7804    0.0000 C   0  0  0  0  0  4           0  0  0
   -9.5657    1.7117    2.8451 C   0  0  0  0  0  4           0  0  0
    1.5026   -0.0000    0.0000 C   0  0  0  0  0  4           0  0  0
    7.6657    4.1118   -0.3906 C   0  0  0  0  0  4           0  0  0
    7.7201    2.8269   -1.2068 C   0  0  0  0  0  4           0  0  0
    3.6384    1.3728   -0.0000 C   0  0  0  0  0  4           0  0  0
    2.1122    1.4009    0.0000 C   0  0  0  0  0  4           0  0  0
  1 16  1  0     0  0
  1 17  1  0     0  0
  2  4  2  0     0  0
  2  5  1  0     0  0
  2  6  1  0     0  0
  2  7  1  0     0  0
  3 18  1  0     0  0
  5 34  1  0     0  0
  8 19  1  0     0  0
  8 35  1  0     0  0
  9 33  2  0     0  0
 10 16  2  0     0  0
 10 23  1  0     0  0
 11 20  1  0     0  0
 11 21  2  0     0  0
 12 20  2  0     0  0
 12 22  1  0     0  0
 13 16  1  0     0  0
 13 21  1  0     0  0
 14 24  1  0     0  0
 14 33  1  0     0  0
 15 34  1  0     0  0
 15 36  1  0     0  0
 15 37  1  0     0  0
 17 23  2  0     0  0
 17 38  1  0     0  0
 18 27  1  0     0  0
 18 28  2  0     0  0
 19 26  2  0     0  0
 19 29  1  0     0  0
 21 25  1  0     0  0
 22 25  1  0     0  0
 22 30  2  0     0  0
 24 27  2  0     0  0
 24 31  1  0     0  0
 25 29  2  0     0  0
 26 30  1  0     0  0
 26 39  1  0     0  0
 28 32  1  0     0  0
 31 32  2  0     0  0
 33 38  1  0     0  0
 34 40  1  0     0  0
 36 41  1  0     0  0
 37 42  1  0     0  0
 39 43  1  0     0  0
 40 41  1  0     0  0
 42 43  1  0     0  0
M  END
> <standard_type>
pIC50

> <# Confs.>
25

> <canonical_smiles>
FC1=CC=CC(NC(CC2=CN=C(NC3=NC=NC4=CC(CCCCN5[C@@H](OP(O)(O)=O)CCC5)=C(OC)C=C34)S2)=O)=C1

> <standard_relation>
=

> <Publication_ID>
nan

> <predicted_activity_value>
8.09151498112135

> <actual_activity_value>
8.045757490560675

> <Compound>
7

> <standard_units>
nM

> hash
12078469371866150626

$$$$
6
XXILIB    08252103493D 0   0.00000     0.00000

 43 47  0     1  0            999 V2000
   -7.0859    0.4569    2.5689 S   0  0  0  0  0  2           0  0  0
    6.6127    6.4514    1.4162 P   0  0  2  0  0  5           0  0  0
   -8.4522    7.4295    6.1476 F   0  0  0  0  0  1           0  0  0
    8.0577    6.6904    1.0877 O   0  0  0  0  0  2           0  0  0
    6.1105    4.9211    1.2661 O   0  0  0  0  0  2           0  0  0
    5.5650    7.2866    0.5092 O   0  0  0  0  0  2           0  0  0
    6.1815    6.8373    2.9259 O   0  0  0  0  0  2           0  0  0
   -0.0206   -0.0086    2.3507 O   0  0  0  0  0  2           0  0  0
   -8.7747    3.0167    4.6962 O   0  0  0  0  0  2           0  0  0
   -6.9561    1.3095    0.1462 N   0  0  0  0  0  3           0  0  0
   -4.8122    0.0907   -1.5006 N   0  0  0  0  0  3           0  0  0
   -2.6438    0.0749   -2.5208 N   0  0  0  0  0  3           0  0  0
   -5.0674    0.0335    0.8730 N   0  0  0  0  0  3           0  0  0
   -9.7590    4.1173    2.9021 N   0  0  0  0  0  3           0  0  0
    5.7109    2.8930   -0.0000 N   0  0  2  0  0  3           0  0  0
   -6.2835    0.6118    1.0418 C   0  0  0  0  0  4           0  0  0
   -8.3940    1.3972    1.9888 C   0  0  0  0  0  4           0  0  0
   -9.0061    7.1151    4.9680 C   0  0  0  0  0  4           0  0  0
   -0.7396    0.0000    1.1890 C   0  0  0  0  0  4           0  0  0
   -3.9835    0.1031   -2.5532 C   0  0  0  0  0  4           0  0  0
   -4.2385    0.0299   -0.2728 C   0  0  0  0  0  4           0  0  0
   -2.0729    0.0407   -1.3096 C   0  0  0  0  0  4           0  0  0
   -8.1475    1.7553    0.6808 C   0  0  0  0  0  4           0  0  0
   -9.6571    5.4472    3.3524 C   0  0  0  0  0  4           0  0  0
   -2.8269    0.0244   -0.1214 C   0  0  0  0  0  4           0  0  0
    0.0000    0.0000    0.0000 C   0  0  0  0  0  4           0  0  0
   -9.0754    5.7779    4.5811 C   0  0  0  0  0  4           0  0  0
   -9.5025    8.1288    4.1546 C   0  0  0  0  0  4           0  0  0
   -2.1386    0.0113    1.1207 C   0  0  0  0  0  4           0  0  0
   -0.6840    0.0269   -1.2262 C   0  0  0  0  0  4           0  0  0
  -10.1605    6.4641    2.5303 C   0  0  0  0  0  4           0  0  0
  -10.0814    7.8002    2.9312 C   0  0  0  0  0  4           0  0  0
   -9.3136    3.0025    3.5900 C   0  0  0  0  0  4           0  0  0
    6.1998    4.2795    0.0000 C   0  0  2  0  0  4           0  0  0
   -0.7940   -0.0084    3.5481 C   0  0  0  0  0  4           0  0  0
    6.2944    2.2987   -1.2074 C   0  0  0  0  0  4           0  0  0
    4.2509    2.7804    0.0000 C   0  0  0  0  0  4           0  0  0
   -9.5657    1.7117    2.8451 C   0  0  0  0  0  4           0  0  0
    1.5026   -0.0000    0.0000 C   0  0  0  0  0  4           0  0  0
    7.6657    4.1118   -0.3906 C   0  0  0  0  0  4           0  0  0
    7.7201    2.8269   -1.2068 C   0  0  0  0  0  4           0  0  0
    3.6384    1.3728   -0.0000 C   0  0  0  0  0  4           0  0  0
    2.1122    1.4009    0.0000 C   0  0  0  0  0  4           0  0  0
  1 16  1  0     0  0
  1 17  1  0     0  0
  2  4  2  0     0  0
  2  5  1  0     0  0
  2  6  1  0     0  0
  2  7  1  0     0  0
  3 18  1  0     0  0
  5 34  1  0     0  0
  8 19  1  0     0  0
  8 35  1  0     0  0
  9 33  2  0     0  0
 10 16  2  0     0  0
 10 23  1  0     0  0
 11 20  1  0     0  0
 11 21  2  0     0  0
 12 20  2  0     0  0
 12 22  1  0     0  0
 13 16  1  0     0  0
 13 21  1  0     0  0
 14 24  1  0     0  0
 14 33  1  0     0  0
 15 34  1  0     0  0
 15 36  1  0     0  0
 15 37  1  0     0  0
 17 23  2  0     0  0
 17 38  1  0     0  0
 18 27  1  0     0  0
 18 28  2  0     0  0
 19 26  2  0     0  0
 19 29  1  0     0  0
 21 25  1  0     0  0
 22 25  1  0     0  0
 22 30  2  0     0  0
 24 27  2  0     0  0
 24 31  1  0     0  0
 25 29  2  0     0  0
 26 30  1  0     0  0
 26 39  1  0     0  0
 28 32  1  0     0  0
 31 32  2  0     0  0
 33 38  1  0     0  0
 34 40  1  0     0  0
 36 41  1  0     0  0
 37 42  1  0     0  0
 39 43  1  0     0  0
 40 41  1  0     0  0
 42 43  1  0     0  0
M  END
> <standard_type>
pIC50

> <# Confs.>
25

> <canonical_smiles>
FC1=CC=CC(NC(CC2=CN=C(NC3=NC=NC4=CC(CCCCN5[C@@H](OP(O)(O)=O)CCC5)=C(OC)C=C34)S2)=O)=C1

> <standard_relation>
=

> <Publication_ID>
nan

> <predicted_activity_value>
8.09151498112135

> <actual_activity_value>
8.045757490560675

> <Compound>
7

> <standard_units>
nM

> hash
12078469371866150626

$$$$
6
XXILIB    08252103493D 0   0.00000     0.00000

 43 47  0     1  0            999 V2000
   -7.0859    0.4569    2.5689 S   0  0  0  0  0  2           0  0  0
    6.6127   -6.4514   -1.4162 P   0  0  2  0  0  5           0  0  0
   -8.4449    7.4312    6.1421 F   0  0  0  0  0  1           0  0  0
    8.0577   -6.6904   -1.0877 O   0  0  0  0  0  2           0  0  0
    6.1105   -4.9211   -1.2661 O   0  0  0  0  0  2           0  0  0
    5.5650   -7.2866   -0.5092 O   0  0  0  0  0  2           0  0  0
    6.1815   -6.8373   -2.9259 O   0  0  0  0  0  2           0  0  0
   -0.0206   -0.0086    2.3507 O   0  0  0  0  0  2           0  0  0
   -9.6365    4.0936    3.1216 O   0  0  0  0  0  2           0  0  0
   -6.9561    1.3095    0.1462 N   0  0  0  0  0  3           0  0  0
   -4.8122    0.0907   -1.5006 N   0  0  0  0  0  3           0  0  0
   -2.6438    0.0749   -2.5208 N   0  0  0  0  0  3           0  0  0
   -5.0674    0.0335    0.8730 N   0  0  0  0  0  3           0  0  0
   -8.6884    2.8079    4.8088 N   0  0  0  0  0  3           0  0  0
    5.7109   -2.8930    0.0000 N   0  0  2  0  0  3           0  0  0
   -6.2835    0.6118    1.0418 C   0  0  0  0  0  4           0  0  0
   -8.3940    1.3972    1.9888 C   0  0  0  0  0  4           0  0  0
   -8.2053    6.1363    6.3931 C   0  0  0  0  0  4           0  0  0
   -0.7396    0.0000    1.1890 C   0  0  0  0  0  4           0  0  0
   -3.9835    0.1031   -2.5532 C   0  0  0  0  0  4           0  0  0
   -4.2385    0.0299   -0.2728 C   0  0  0  0  0  4           0  0  0
   -2.0729    0.0407   -1.3096 C   0  0  0  0  0  4           0  0  0
   -8.1475    1.7553    0.6808 C   0  0  0  0  0  4           0  0  0
   -8.3315    3.8260    5.7133 C   0  0  0  0  0  4           0  0  0
   -2.8269    0.0244   -0.1214 C   0  0  0  0  0  4           0  0  0
    0.0000    0.0000    0.0000 C   0  0  0  0  0  4           0  0  0
   -8.5845    5.1776    5.4553 C   0  0  0  0  0  4           0  0  0
   -7.5814    5.7753    7.5831 C   0  0  0  0  0  4           0  0  0
   -2.1386    0.0113    1.1207 C   0  0  0  0  0  4           0  0  0
   -0.6840    0.0269   -1.2262 C   0  0  0  0  0  4           0  0  0
   -7.7016    3.4571    6.9092 C   0  0  0  0  0  4           0  0  0
   -7.3296    4.4299    7.8406 C   0  0  0  0  0  4           0  0  0
   -9.3136    3.0025    3.5900 C   0  0  0  0  0  4           0  0  0
    6.1998   -4.2795    0.0000 C   0  0  2  0  0  4           0  0  0
   -0.7940   -0.0084    3.5481 C   0  0  0  0  0  4           0  0  0
    6.2944   -2.2987    1.2074 C   0  0  0  0  0  4           0  0  0
    4.2509   -2.7804    0.0000 C   0  0  0  0  0  4           0  0  0
   -9.5657    1.7117    2.8451 C   0  0  0  0  0  4           0  0  0
    1.5026   -0.0000   -0.0000 C   0  0  0  0  0  4           0  0  0
    7.6657   -4.1118    0.3906 C   0  0  0  0  0  4           0  0  0
    7.7201   -2.8269    1.2068 C   0  0  0  0  0  4           0  0  0
    3.6384   -1.3728    0.0000 C   0  0  0  0  0  4           0  0  0
    2.1122   -1.4009    0.0000 C   0  0  0  0  0  4           0  0  0
  1 16  1  0     0  0
  1 17  1  0     0  0
  2  4  2  0     0  0
  2  5  1  0     0  0
  2  6  1  0     0  0
  2  7  1  0     0  0
  3 18  1  0     0  0
  5 34  1  0     0  0
  8 19  1  0     0  0
  8 35  1  0     0  0
  9 33  2  0     0  0
 10 16  2  0     0  0
 10 23  1  0     0  0
 11 20  1  0     0  0
 11 21  2  0     0  0
 12 20  2  0     0  0
 12 22  1  0     0  0
 13 16  1  0     0  0
 13 21  1  0     0  0
 14 24  1  0     0  0
 14 33  1  0     0  0
 15 34  1  0     0  0
 15 36  1  0     0  0
 15 37  1  0     0  0
 17 23  2  0     0  0
 17 38  1  0     0  0
 18 27  1  0     0  0
 18 28  2  0     0  0
 19 26  2  0     0  0
 19 29  1  0     0  0
 21 25  1  0     0  0
 22 25  1  0     0  0
 22 30  2  0     0  0
 24 27  2  0     0  0
 24 31  1  0     0  0
 25 29  2  0     0  0
 26 30  1  0     0  0
 26 39  1  0     0  0
 28 32  1  0     0  0
 31 32  2  0     0  0
 33 38  1  0     0  0
 34 40  1  0     0  0
 36 41  1  0     0  0
 37 42  1  0     0  0
 39 43  1  0     0  0
 40 41  1  0     0  0
 42 43  1  0     0  0
M  END
> <standard_type>
pIC50

> <# Confs.>
25

> <canonical_smiles>
FC1=CC=CC(NC(CC2=CN=C(NC3=NC=NC4=CC(CCCCN5[C@@H](OP(O)(O)=O)CCC5)=C(OC)C=C34)S2)=O)=C1

> <standard_relation>
=

> <Publication_ID>
nan

> <predicted_activity_value>
8.09151498112135

> <actual_activity_value>
8.045757490560675

> <Compound>
7

> <standard_units>
nM

> hash
12078469371866150626

$$$$
8
XXILIB    08252103493D 0   0.00000     0.00000

 44 48  0     1  0            999 V2000
    6.5295    4.0313    6.9766 F   0  0  0  0  0  1           0  0  0
    7.6330    3.3433    8.7192 F   0  0  0  0  0  1           0  0  0
    5.4840    3.6148    8.8373 F   0  0  0  0  0  1           0  0  0
   -2.9808    0.2177   -4.7450 O   0  0  0  0  0  2           0  0  0
   -0.3851    0.1979   -4.9479 O   0  0  0  0  0  2           0  0  0
    5.5061   -2.4252    4.4524 O   0  0  0  0  0  2           0  0  0
  -11.1034    4.6607   -4.2411 O   0  0  0  0  0  2           0  0  0
    3.1052   -1.5044    2.6039 N   0  0  0  0  0  3           0  0  0
    1.9248   -1.1852    2.0528 N   0  0  0  0  0  3           0  0  0
   -0.6508    0.0000    1.1900 N   0  0  0  0  0  3           0  0  0
   -2.7546    0.0492    0.0438 N   0  0  0  0  0  3           0  0  0
    1.4153    0.0000    0.0000 N   0  0  0  0  0  3           0  0  0
    5.8538   -0.1268    4.4139 N   0  0  0  0  0  3           0  0  0
   -7.2329    1.4084   -5.3211 N   0  0  1  0  0  3           0  0  0
   -2.2850    0.1676   -3.5703 C   0  0  0  0  0  4           0  0  0
   -0.8910    0.1559   -3.6794 C   0  0  0  0  0  4           0  0  0
   -1.9895    0.0157    1.1439 C   0  0  0  0  0  4           0  0  0
    2.2541   -0.5347    0.9262 C   0  0  0  0  0  4           0  0  0
    0.0000    0.0000    0.0000 C   0  0  0  0  0  4           0  0  0
   -2.1156    0.0764   -1.1331 C   0  0  0  0  0  4           0  0  0
    4.1890   -1.0766    1.8911 C   0  0  0  0  0  4           0  0  0
    5.9525    0.1234    5.7958 C   0  0  0  0  0  4           0  0  0
   -0.7109    0.0605   -1.2272 C   0  0  0  0  0  4           0  0  0
    6.2762    1.7493    7.5790 C   0  0  0  0  0  4           0  0  0
   -2.8741    0.1264   -2.3003 C   0  0  0  0  0  4           0  0  0
   -0.1162    0.1093   -2.5146 C   0  0  0  0  0  4           0  0  0
    3.6648   -0.4497    0.7835 C   0  0  0  0  0  4           0  0  0
    6.1643    1.4433    6.2159 C   0  0  0  0  0  4           0  0  0
    5.8443   -0.8955    6.7481 C   0  0  0  0  0  4           0  0  0
    6.1548    0.7216    8.5204 C   0  0  0  0  0  4           0  0  0
    5.9449   -0.5939    8.1064 C   0  0  0  0  0  4           0  0  0
    6.4771    3.1613    8.0228 C   0  0  1  0  0  4           0  0  0
    5.6465   -1.3681    3.8378 C   0  0  0  0  0  4           0  0  0
   -4.4030    0.2291   -4.6179 C   0  0  0  0  0  4           0  0  0
   -9.6897    4.8096   -4.2703 C   0  0  0  0  0  4           0  0  0
    1.0376    0.1851   -5.0366 C   0  0  0  0  0  4           0  0  0
   -6.5599    0.3035   -6.0083 C   0  0  0  0  0  4           0  0  0
   -6.8667    2.7110   -5.9011 C   0  0  0  0  0  4           0  0  0
   -8.6909    1.2161   -5.3617 C   0  0  0  0  0  4           0  0  0
    5.5866   -1.3140    2.3286 C   0  0  0  0  0  4           0  0  0
   -9.0543    3.7074   -5.1058 C   0  0  1  0  0  4           0  0  0
   -5.0249    0.2862   -6.0076 C   0  0  0  0  0  4           0  0  0
   -7.5308    3.8618   -5.1416 C   0  0  0  0  0  4           0  0  0
   -9.4175    2.3122   -4.5794 C   0  0  0  0  0  4           0  0  0
  1 32  1  0     0  0
  2 32  1  0     0  0
  3 32  1  0     0  0
  4 15  1  0     0  0
  4 34  1  0     0  0
  5 16  1  0     0  0
  5 36  1  0     0  0
  6 33  2  0     0  0
  7 35  1  0     0  0
  8  9  1  0     0  0
  8 21  1  0     0  0
  9 18  2  0     0  0
 10 17  1  0     0  0
 10 19  2  0     0  0
 11 17  2  0     0  0
 11 20  1  0     0  0
 12 18  1  0     0  0
 12 19  1  0     0  0
 13 22  1  0     0  0
 13 33  1  0     0  0
 14 37  1  0     0  0
 14 38  1  0     0  0
 14 39  1  0     0  0
 15 16  2  0     0  0
 15 25  1  0     0  0
 16 26  1  0     0  0
 18 27  1  0     0  0
 19 23  1  0     0  0
 20 23  1  0     0  0
 20 25  2  0     0  0
 21 27  2  0     0  0
 21 40  1  0     0  0
 22 28  1  0     0  0
 22 29  2  0     0  0
 23 26  2  0     0  0
 24 28  2  0     0  0
 24 30  1  0     0  0
 24 32  1  0     0  0
 29 31  1  0     0  0
 30 31  2  0     0  0
 33 40  1  0     0  0
 34 42  1  0     0  0
 35 41  1  0     0  0
 37 42  1  0     0  0
 38 43  1  0     0  0
 39 44  1  0     0  0
 41 43  1  0     0  0
 41 44  1  0     0  0
M  END
> <standard_type>
pIC50

> <# Confs.>
25

> <canonical_smiles>
O=C(CC1=CC(NC2=NC=NC3=CC(OCCCN4CCC(CO)CC4)=C(OC)C=C23)=NN1)NC5=CC=CC(C(F)(F)F)=C5

> <standard_relation>
=

> <Publication_ID>
nan

> <predicted_activity_value>
7.886056647693163

> <actual_activity_value>
7.886056647693163

> <Compound>
9

> <standard_units>
nM

> hash
2551856031523063432

$$$$
8
XXILIB    08252103493D 0   0.00000     0.00000

 44 48  0     1  0            999 V2000
    6.5295    4.0313    6.9766 F   0  0  0  0  0  1           0  0  0
    7.6330    3.3433    8.7192 F   0  0  0  0  0  1           0  0  0
    5.4840    3.6148    8.8373 F   0  0  0  0  0  1           0  0  0
   -2.9808    0.2177   -4.7450 O   0  0  0  0  0  2           0  0  0
   -0.3851    0.1979   -4.9479 O   0  0  0  0  0  2           0  0  0
    5.5061   -2.4252    4.4524 O   0  0  0  0  0  2           0  0  0
   -9.2844   -5.5840   -5.1915 O   0  0  0  0  0  2           0  0  0
    3.1052   -1.5044    2.6039 N   0  0  0  0  0  3           0  0  0
    1.9248   -1.1852    2.0528 N   0  0  0  0  0  3           0  0  0
   -0.6508    0.0000    1.1900 N   0  0  0  0  0  3           0  0  0
   -2.7546    0.0492    0.0438 N   0  0  0  0  0  3           0  0  0
    1.4153    0.0000    0.0000 N   0  0  0  0  0  3           0  0  0
    5.8538   -0.1268    4.4139 N   0  0  0  0  0  3           0  0  0
   -7.2580   -0.8327   -5.4020 N   0  0  1  0  0  3           0  0  0
   -2.2850    0.1676   -3.5703 C   0  0  0  0  0  4           0  0  0
   -0.8910    0.1559   -3.6794 C   0  0  0  0  0  4           0  0  0
   -1.9895    0.0157    1.1439 C   0  0  0  0  0  4           0  0  0
    2.2541   -0.5347    0.9262 C   0  0  0  0  0  4           0  0  0
    0.0000    0.0000    0.0000 C   0  0  0  0  0  4           0  0  0
   -2.1156    0.0764   -1.1331 C   0  0  0  0  0  4           0  0  0
    4.1890   -1.0766    1.8911 C   0  0  0  0  0  4           0  0  0
    5.9525    0.1234    5.7958 C   0  0  0  0  0  4           0  0  0
   -0.7109    0.0605   -1.2272 C   0  0  0  0  0  4           0  0  0
    6.2762    1.7493    7.5790 C   0  0  0  0  0  4           0  0  0
   -2.8741    0.1264   -2.3003 C   0  0  0  0  0  4           0  0  0
   -0.1162    0.1093   -2.5146 C   0  0  0  0  0  4           0  0  0
    3.6648   -0.4497    0.7835 C   0  0  0  0  0  4           0  0  0
    6.1643    1.4433    6.2159 C   0  0  0  0  0  4           0  0  0
    5.8443   -0.8955    6.7481 C   0  0  0  0  0  4           0  0  0
    6.1548    0.7216    8.5204 C   0  0  0  0  0  4           0  0  0
    5.9449   -0.5939    8.1064 C   0  0  0  0  0  4           0  0  0
    6.4771    3.1613    8.0228 C   0  0  1  0  0  4           0  0  0
    5.6465   -1.3681    3.8378 C   0  0  0  0  0  4           0  0  0
   -4.4030    0.2291   -4.6179 C   0  0  0  0  0  4           0  0  0
   -9.6764   -4.3358   -4.6349 C   0  0  0  0  0  4           0  0  0
    1.0376    0.1851   -5.0366 C   0  0  0  0  0  4           0  0  0
   -6.5599    0.3035   -6.0083 C   0  0  0  0  0  4           0  0  0
   -8.7197   -0.6742   -5.4779 C   0  0  0  0  0  4           0  0  0
   -6.8399   -2.0866   -6.0480 C   0  0  0  0  0  4           0  0  0
    5.5866   -1.3140    2.3286 C   0  0  0  0  0  4           0  0  0
   -9.0212   -3.1866   -5.3876 C   0  0  1  0  0  4           0  0  0
   -5.0249    0.2862   -6.0076 C   0  0  0  0  0  4           0  0  0
   -9.4393   -1.8383   -4.7930 C   0  0  0  0  0  4           0  0  0
   -7.4905   -3.2995   -5.3796 C   0  0  0  0  0  4           0  0  0
  1 32  1  0     0  0
  2 32  1  0     0  0
  3 32  1  0     0  0
  4 15  1  0     0  0
  4 34  1  0     0  0
  5 16  1  0     0  0
  5 36  1  0     0  0
  6 33  2  0     0  0
  7 35  1  0     0  0
  8  9  1  0     0  0
  8 21  1  0     0  0
  9 18  2  0     0  0
 10 17  1  0     0  0
 10 19  2  0     0  0
 11 17  2  0     0  0
 11 20  1  0     0  0
 12 18  1  0     0  0
 12 19  1  0     0  0
 13 22  1  0     0  0
 13 33  1  0     0  0
 14 37  1  0     0  0
 14 38  1  0     0  0
 14 39  1  0     0  0
 15 16  2  0     0  0
 15 25  1  0     0  0
 16 26  1  0     0  0
 18 27  1  0     0  0
 19 23  1  0     0  0
 20 23  1  0     0  0
 20 25  2  0     0  0
 21 27  2  0     0  0
 21 40  1  0     0  0
 22 28  1  0     0  0
 22 29  2  0     0  0
 23 26  2  0     0  0
 24 28  2  0     0  0
 24 30  1  0     0  0
 24 32  1  0     0  0
 29 31  1  0     0  0
 30 31  2  0     0  0
 33 40  1  0     0  0
 34 42  1  0     0  0
 35 41  1  0     0  0
 37 42  1  0     0  0
 38 43  1  0     0  0
 39 44  1  0     0  0
 41 43  1  0     0  0
 41 44  1  0     0  0
M  END
> <standard_type>
pIC50

> <# Confs.>
25

> <canonical_smiles>
O=C(CC1=CC(NC2=NC=NC3=CC(OCCCN4CCC(CO)CC4)=C(OC)C=C23)=NN1)NC5=CC=CC(C(F)(F)F)=C5

> <standard_relation>
=

> <Publication_ID>
nan

> <predicted_activity_value>
7.886056647693163

> <actual_activity_value>
7.886056647693163

> <Compound>
9

> <standard_units>
nM

> hash
2551856031523063432

$$$$
8
XXILIB    08252103493D 0   0.00000     0.00000

 44 48  0     1  0            999 V2000
    6.5295    8.0576   -0.0029 F   0  0  0  0  0  1           0  0  0
    7.6330    9.2227    1.4642 F   0  0  0  0  0  1           0  0  0
    5.4840    9.4608    1.2881 F   0  0  0  0  0  1           0  0  0
   -2.9808    0.2177   -4.7450 O   0  0  0  0  0  2           0  0  0
   -0.3851    0.1979   -4.9479 O   0  0  0  0  0  2           0  0  0
    5.5061    2.6433    4.3265 O   0  0  0  0  0  2           0  0  0
  -11.1034    4.6607   -4.2411 O   0  0  0  0  0  2           0  0  0
    3.1052    1.5029    2.6048 N   0  0  0  0  0  3           0  0  0
    1.9248    1.1852    2.0528 N   0  0  0  0  0  3           0  0  0
   -0.6508    0.0000    1.1900 N   0  0  0  0  0  3           0  0  0
   -2.7546    0.0492    0.0438 N   0  0  0  0  0  3           0  0  0
    1.4153    0.0000   -0.0000 N   0  0  0  0  0  3           0  0  0
    5.8538    3.7591    2.3168 N   0  0  0  0  0  3           0  0  0
   -7.2329    1.4084   -5.3211 N   0  0  1  0  0  3           0  0  0
   -2.2850    0.1676   -3.5703 C   0  0  0  0  0  4           0  0  0
   -0.8910    0.1559   -3.6794 C   0  0  0  0  0  4           0  0  0
   -1.9895    0.0157    1.1439 C   0  0  0  0  0  4           0  0  0
    2.2541    0.5347    0.9262 C   0  0  0  0  0  4           0  0  0
    0.0000    0.0000    0.0000 C   0  0  0  0  0  4           0  0  0
   -2.1156    0.0764   -1.1331 C   0  0  0  0  0  4           0  0  0
    4.1890    1.0995    1.8779 C   0  0  0  0  0  4           0  0  0
    5.9525    5.0810    2.7911 C   0  0  0  0  0  4           0  0  0
   -0.7109    0.0605   -1.2272 C   0  0  0  0  0  4           0  0  0
    6.2762    7.4382    2.2746 C   0  0  0  0  0  4           0  0  0
   -2.8741    0.1264   -2.3003 C   0  0  0  0  0  4           0  0  0
   -0.1162    0.1093   -2.5146 C   0  0  0  0  0  4           0  0  0
    3.6648    0.4537    0.7812 C   0  0  0  0  0  4           0  0  0
    6.1643    6.1048    1.8580 C   0  0  0  0  0  4           0  0  0
    5.8443    5.3962    4.1496 C   0  0  0  0  0  4           0  0  0
    6.1548    7.7397    3.6353 C   0  0  0  0  0  4           0  0  0
    5.9449    6.7234    4.5675 C   0  0  0  0  0  4           0  0  0
    6.4771    8.5286    1.2736 C   0  0  1  0  0  4           0  0  0
    5.6465    2.6396    3.1037 C   0  0  0  0  0  4           0  0  0
   -4.4030    0.2291   -4.6179 C   0  0  0  0  0  4           0  0  0
   -9.6897    4.8096   -4.2703 C   0  0  0  0  0  4           0  0  0
    1.0376    0.1851   -5.0366 C   0  0  0  0  0  4           0  0  0
   -6.5599    0.3035   -6.0083 C   0  0  0  0  0  4           0  0  0
   -6.8667    2.7110   -5.9011 C   0  0  0  0  0  4           0  0  0
   -8.6909    1.2161   -5.3617 C   0  0  0  0  0  4           0  0  0
    5.5866    1.3597    2.3022 C   0  0  0  0  0  4           0  0  0
   -9.0543    3.7074   -5.1058 C   0  0  1  0  0  4           0  0  0
   -5.0249    0.2862   -6.0076 C   0  0  0  0  0  4           0  0  0
   -7.5308    3.8618   -5.1416 C   0  0  0  0  0  4           0  0  0
   -9.4175    2.3122   -4.5794 C   0  0  0  0  0  4           0  0  0
  1 32  1  0     0  0
  2 32  1  0     0  0
  3 32  1  0     0  0
  4 15  1  0     0  0
  4 34  1  0     0  0
  5 16  1  0     0  0
  5 36  1  0     0  0
  6 33  2  0     0  0
  7 35  1  0     0  0
  8  9  1  0     0  0
  8 21  1  0     0  0
  9 18  2  0     0  0
 10 17  1  0     0  0
 10 19  2  0     0  0
 11 17  2  0     0  0
 11 20  1  0     0  0
 12 18  1  0     0  0
 12 19  1  0     0  0
 13 22  1  0     0  0
 13 33  1  0     0  0
 14 37  1  0     0  0
 14 38  1  0     0  0
 14 39  1  0     0  0
 15 16  2  0     0  0
 15 25  1  0     0  0
 16 26  1  0     0  0
 18 27  1  0     0  0
 19 23  1  0     0  0
 20 23  1  0     0  0
 20 25  2  0     0  0
 21 27  2  0     0  0
 21 40  1  0     0  0
 22 28  1  0     0  0
 22 29  2  0     0  0
 23 26  2  0     0  0
 24 28  2  0     0  0
 24 30  1  0     0  0
 24 32  1  0     0  0
 29 31  1  0     0  0
 30 31  2  0     0  0
 33 40  1  0     0  0
 34 42  1  0     0  0
 35 41  1  0     0  0
 37 42  1  0     0  0
 38 43  1  0     0  0
 39 44  1  0     0  0
 41 43  1  0     0  0
 41 44  1  0     0  0
M  END
> <standard_type>
pIC50

> <# Confs.>
25

> <canonical_smiles>
O=C(CC1=CC(NC2=NC=NC3=CC(OCCCN4CCC(CO)CC4)=C(OC)C=C23)=NN1)NC5=CC=CC(C(F)(F)F)=C5

> <standard_relation>
=

> <Publication_ID>
nan

> <predicted_activity_value>
7.886056647693163

> <actual_activity_value>
7.886056647693163

> <Compound>
9

> <standard_units>
nM

> hash
2551856031523063432

$$$$
8
XXILIB    08252103493D 0   0.00000     0.00000

 44 48  0     1  0            999 V2000
    6.9084   -7.9466    0.0208 F   0  0  0  0  0  1           0  0  0
    5.8183   -9.4021    1.2127 F   0  0  0  0  0  1           0  0  0
    7.9384   -9.0944    1.5539 F   0  0  0  0  0  1           0  0  0
   -2.9808    0.2177   -4.7450 O   0  0  0  0  0  2           0  0  0
   -0.3851    0.1979   -4.9479 O   0  0  0  0  0  2           0  0  0
    5.5083   -2.6120    4.3437 O   0  0  0  0  0  2           0  0  0
  -11.1034    4.6607   -4.2411 O   0  0  0  0  0  2           0  0  0
    3.1052   -1.5044    2.6039 N   0  0  0  0  0  3           0  0  0
    1.9248   -1.1852    2.0528 N   0  0  0  0  0  3           0  0  0
   -0.6508    0.0000    1.1900 N   0  0  0  0  0  3           0  0  0
   -2.7546    0.0492    0.0438 N   0  0  0  0  0  3           0  0  0
    1.4153   -0.0000   -0.0000 N   0  0  0  0  0  3           0  0  0
    5.9298   -3.7038    2.3349 N   0  0  0  0  0  3           0  0  0
   -7.2329    1.4084   -5.3211 N   0  0  1  0  0  3           0  0  0
   -2.2850    0.1676   -3.5703 C   0  0  0  0  0  4           0  0  0
   -0.8910    0.1559   -3.6794 C   0  0  0  0  0  4           0  0  0
   -1.9895    0.0157    1.1439 C   0  0  0  0  0  4           0  0  0
    2.2541   -0.5347    0.9262 C   0  0  0  0  0  4           0  0  0
    0.0000    0.0000    0.0000 C   0  0  0  0  0  4           0  0  0
   -2.1156    0.0764   -1.1331 C   0  0  0  0  0  4           0  0  0
    4.1890   -1.0766    1.8911 C   0  0  0  0  0  4           0  0  0
    6.0553   -5.0256    2.8028 C   0  0  0  0  0  4           0  0  0
   -0.7109    0.0605   -1.2272 C   0  0  0  0  0  4           0  0  0
    6.4592   -7.3688    2.2789 C   0  0  0  0  0  4           0  0  0
   -2.8741    0.1264   -2.3003 C   0  0  0  0  0  4           0  0  0
   -0.1162    0.1093   -2.5146 C   0  0  0  0  0  4           0  0  0
    3.6648   -0.4497    0.7835 C   0  0  0  0  0  4           0  0  0
    6.3297   -6.0347    1.8700 C   0  0  0  0  0  4           0  0  0
    5.9176   -5.3546    4.1554 C   0  0  0  0  0  4           0  0  0
    6.3300   -7.6812    3.6365 C   0  0  0  0  0  4           0  0  0
    6.0559   -6.6799    4.5683 C   0  0  0  0  0  4           0  0  0
    6.7763   -8.4371    1.2842 C   0  0  1  0  0  4           0  0  0
    5.6615   -2.5978    3.1226 C   0  0  0  0  0  4           0  0  0
   -4.4030    0.2291   -4.6179 C   0  0  0  0  0  4           0  0  0
   -9.6897    4.8096   -4.2703 C   0  0  0  0  0  4           0  0  0
    1.0376    0.1851   -5.0366 C   0  0  0  0  0  4           0  0  0
   -6.5599    0.3035   -6.0083 C   0  0  0  0  0  4           0  0  0
   -6.8667    2.7110   -5.9011 C   0  0  0  0  0  4           0  0  0
   -8.6909    1.2161   -5.3617 C   0  0  0  0  0  4           0  0  0
    5.5866   -1.3140    2.3286 C   0  0  0  0  0  4           0  0  0
   -9.0543    3.7074   -5.1058 C   0  0  1  0  0  4           0  0  0
   -5.0249    0.2862   -6.0076 C   0  0  0  0  0  4           0  0  0
   -7.5308    3.8618   -5.1416 C   0  0  0  0  0  4           0  0  0
   -9.4175    2.3122   -4.5794 C   0  0  0  0  0  4           0  0  0
  1 32  1  0     0  0
  2 32  1  0     0  0
  3 32  1  0     0  0
  4 15  1  0     0  0
  4 34  1  0     0  0
  5 16  1  0     0  0
  5 36  1  0     0  0
  6 33  2  0     0  0
  7 35  1  0     0  0
  8  9  1  0     0  0
  8 21  1  0     0  0
  9 18  2  0     0  0
 10 17  1  0     0  0
 10 19  2  0     0  0
 11 17  2  0     0  0
 11 20  1  0     0  0
 12 18  1  0     0  0
 12 19  1  0     0  0
 13 22  1  0     0  0
 13 33  1  0     0  0
 14 37  1  0     0  0
 14 38  1  0     0  0
 14 39  1  0     0  0
 15 16  2  0     0  0
 15 25  1  0     0  0
 16 26  1  0     0  0
 18 27  1  0     0  0
 19 23  1  0     0  0
 20 23  1  0     0  0
 20 25  2  0     0  0
 21 27  2  0     0  0
 21 40  1  0     0  0
 22 28  1  0     0  0
 22 29  2  0     0  0
 23 26  2  0     0  0
 24 28  2  0     0  0
 24 30  1  0     0  0
 24 32  1  0     0  0
 29 31  1  0     0  0
 30 31  2  0     0  0
 33 40  1  0     0  0
 34 42  1  0     0  0
 35 41  1  0     0  0
 37 42  1  0     0  0
 38 43  1  0     0  0
 39 44  1  0     0  0
 41 43  1  0     0  0
 41 44  1  0     0  0
M  END
> <standard_type>
pIC50

> <# Confs.>
25

> <canonical_smiles>
O=C(CC1=CC(NC2=NC=NC3=CC(OCCCN4CCC(CO)CC4)=C(OC)C=C23)=NN1)NC5=CC=CC(C(F)(F)F)=C5

> <standard_relation>
=

> <Publication_ID>
nan

> <predicted_activity_value>
7.886056647693163

> <actual_activity_value>
7.886056647693163

> <Compound>
9

> <standard_units>
nM

> hash
2551856031523063432

$$$$
8
XXILIB    08252103493D 0   0.00000     0.00000

 44 48  0     1  0            999 V2000
    6.9084   -3.9553    6.8924 F   0  0  0  0  0  1           0  0  0
    5.8183   -3.6508    8.7489 F   0  0  0  0  0  1           0  0  0
    7.9384   -3.2015    8.6530 F   0  0  0  0  0  1           0  0  0
   -2.9808    0.2177   -4.7450 O   0  0  0  0  0  2           0  0  0
   -0.3851    0.1979   -4.9479 O   0  0  0  0  0  2           0  0  0
    5.5083    2.4558    4.4340 O   0  0  0  0  0  2           0  0  0
  -11.1034    4.6607   -4.2411 O   0  0  0  0  0  2           0  0  0
    3.1052    1.5029    2.6048 N   0  0  0  0  0  3           0  0  0
    1.9248    1.1852    2.0528 N   0  0  0  0  0  3           0  0  0
   -0.6508    0.0000    1.1900 N   0  0  0  0  0  3           0  0  0
   -2.7546    0.0492    0.0438 N   0  0  0  0  0  3           0  0  0
    1.4153   -0.0000    0.0000 N   0  0  0  0  0  3           0  0  0
    5.9298    0.1702    4.3750 N   0  0  0  0  0  3           0  0  0
   -7.2329    1.4084   -5.3211 N   0  0  1  0  0  3           0  0  0
   -2.2850    0.1676   -3.5703 C   0  0  0  0  0  4           0  0  0
   -0.8910    0.1559   -3.6794 C   0  0  0  0  0  4           0  0  0
   -1.9895    0.0157    1.1439 C   0  0  0  0  0  4           0  0  0
    2.2541    0.5347    0.9262 C   0  0  0  0  0  4           0  0  0
    0.0000    0.0000    0.0000 C   0  0  0  0  0  4           0  0  0
   -2.1156    0.0764   -1.1331 C   0  0  0  0  0  4           0  0  0
    4.1890    1.0995    1.8779 C   0  0  0  0  0  4           0  0  0
    6.0553   -0.0855    5.7537 C   0  0  0  0  0  4           0  0  0
   -0.7109    0.0605   -1.2272 C   0  0  0  0  0  4           0  0  0
    6.4592   -1.7108    7.5210 C   0  0  0  0  0  4           0  0  0
   -2.8741    0.1264   -2.3003 C   0  0  0  0  0  4           0  0  0
   -0.1162    0.1093   -2.5146 C   0  0  0  0  0  4           0  0  0
    3.6648    0.4537    0.7812 C   0  0  0  0  0  4           0  0  0
    6.3297   -1.3979    6.1612 C   0  0  0  0  0  4           0  0  0
    5.9176    0.9214    6.7149 C   0  0  0  0  0  4           0  0  0
    6.3300   -0.6913    8.4704 C   0  0  0  0  0  4           0  0  0
    6.0559    0.6163    8.0691 C   0  0  0  0  0  4           0  0  0
    6.7763   -3.1064    7.9488 C   0  0  1  0  0  4           0  0  0
    5.6615    1.4054    3.8110 C   0  0  0  0  0  4           0  0  0
   -4.4030    0.2291   -4.6179 C   0  0  0  0  0  4           0  0  0
   -9.6897    4.8096   -4.2703 C   0  0  0  0  0  4           0  0  0
    1.0376    0.1851   -5.0366 C   0  0  0  0  0  4           0  0  0
   -6.5599    0.3035   -6.0083 C   0  0  0  0  0  4           0  0  0
   -6.8667    2.7110   -5.9011 C   0  0  0  0  0  4           0  0  0
   -8.6909    1.2161   -5.3617 C   0  0  0  0  0  4           0  0  0
    5.5866    1.3597    2.3022 C   0  0  0  0  0  4           0  0  0
   -9.0543    3.7074   -5.1058 C   0  0  1  0  0  4           0  0  0
   -5.0249    0.2862   -6.0076 C   0  0  0  0  0  4           0  0  0
   -7.5308    3.8618   -5.1416 C   0  0  0  0  0  4           0  0  0
   -9.4175    2.3122   -4.5794 C   0  0  0  0  0  4           0  0  0
  1 32  1  0     0  0
  2 32  1  0     0  0
  3 32  1  0     0  0
  4 15  1  0     0  0
  4 34  1  0     0  0
  5 16  1  0     0  0
  5 36  1  0     0  0
  6 33  2  0     0  0
  7 35  1  0     0  0
  8  9  1  0     0  0
  8 21  1  0     0  0
  9 18  2  0     0  0
 10 17  1  0     0  0
 10 19  2  0     0  0
 11 17  2  0     0  0
 11 20  1  0     0  0
 12 18  1  0     0  0
 12 19  1  0     0  0
 13 22  1  0     0  0
 13 33  1  0     0  0
 14 37  1  0     0  0
 14 38  1  0     0  0
 14 39  1  0     0  0
 15 16  2  0     0  0
 15 25  1  0     0  0
 16 26  1  0     0  0
 18 27  1  0     0  0
 19 23  1  0     0  0
 20 23  1  0     0  0
 20 25  2  0     0  0
 21 27  2  0     0  0
 21 40  1  0     0  0
 22 28  1  0     0  0
 22 29  2  0     0  0
 23 26  2  0     0  0
 24 28  2  0     0  0
 24 30  1  0     0  0
 24 32  1  0     0  0
 29 31  1  0     0  0
 30 31  2  0     0  0
 33 40  1  0     0  0
 34 42  1  0     0  0
 35 41  1  0     0  0
 37 42  1  0     0  0
 38 43  1  0     0  0
 39 44  1  0     0  0
 41 43  1  0     0  0
 41 44  1  0     0  0
M  END
> <standard_type>
pIC50

> <# Confs.>
25

> <canonical_smiles>
O=C(CC1=CC(NC2=NC=NC3=CC(OCCCN4CCC(CO)CC4)=C(OC)C=C23)=NN1)NC5=CC=CC(C(F)(F)F)=C5

> <standard_relation>
=

> <Publication_ID>
nan

> <predicted_activity_value>
7.886056647693163

> <actual_activity_value>
7.886056647693163

> <Compound>
9

> <standard_units>
nM

> hash
2551856031523063432

$$$$
8
XXILIB    08252103493D 0   0.00000     0.00000

 44 48  0     1  0            999 V2000
    6.5295    4.0313    6.9766 F   0  0  0  0  0  1           0  0  0
    7.6330    3.3433    8.7192 F   0  0  0  0  0  1           0  0  0
    5.4840    3.6148    8.8373 F   0  0  0  0  0  1           0  0  0
   -2.9808    0.2177   -4.7450 O   0  0  0  0  0  2           0  0  0
   -0.3851    0.1979   -4.9479 O   0  0  0  0  0  2           0  0  0
    5.5061   -2.4252    4.4524 O   0  0  0  0  0  2           0  0  0
   -5.4716   -2.2727  -13.2503 O   0  0  0  0  0  2           0  0  0
    3.1052   -1.5044    2.6039 N   0  0  0  0  0  3           0  0  0
    1.9248   -1.1852    2.0528 N   0  0  0  0  0  3           0  0  0
   -0.6508    0.0000    1.1900 N   0  0  0  0  0  3           0  0  0
   -2.7546    0.0492    0.0438 N   0  0  0  0  0  3           0  0  0
    1.4153    0.0000    0.0000 N   0  0  0  0  0  3           0  0  0
    5.8538   -0.1268    4.4139 N   0  0  0  0  0  3           0  0  0
   -5.2095   -0.9271   -8.2658 N   0  0  1  0  0  3           0  0  0
   -2.2850    0.1676   -3.5703 C   0  0  0  0  0  4           0  0  0
   -0.8910    0.1559   -3.6794 C   0  0  0  0  0  4           0  0  0
   -1.9895    0.0157    1.1439 C   0  0  0  0  0  4           0  0  0
    2.2541   -0.5347    0.9262 C   0  0  0  0  0  4           0  0  0
    0.0000   -0.0000    0.0000 C   0  0  0  0  0  4           0  0  0
   -2.1156    0.0764   -1.1331 C   0  0  0  0  0  4           0  0  0
    4.1890   -1.0766    1.8911 C   0  0  0  0  0  4           0  0  0
    5.9525    0.1234    5.7958 C   0  0  0  0  0  4           0  0  0
   -0.7109    0.0605   -1.2272 C   0  0  0  0  0  4           0  0  0
    6.2762    1.7493    7.5790 C   0  0  0  0  0  4           0  0  0
   -2.8741    0.1264   -2.3003 C   0  0  0  0  0  4           0  0  0
   -0.1162    0.1093   -2.5146 C   0  0  0  0  0  4           0  0  0
    3.6648   -0.4497    0.7835 C   0  0  0  0  0  4           0  0  0
    6.1643    1.4433    6.2159 C   0  0  0  0  0  4           0  0  0
    5.8443   -0.8955    6.7481 C   0  0  0  0  0  4           0  0  0
    6.1548    0.7216    8.5204 C   0  0  0  0  0  4           0  0  0
    5.9449   -0.5939    8.1064 C   0  0  0  0  0  4           0  0  0
    6.4771    3.1613    8.0228 C   0  0  1  0  0  4           0  0  0
    5.6465   -1.3681    3.8378 C   0  0  0  0  0  4           0  0  0
   -4.4030    0.2291   -4.6179 C   0  0  0  0  0  4           0  0  0
   -5.7904   -1.0775  -12.5493 C   0  0  0  0  0  4           0  0  0
    1.0376    0.1851   -5.0366 C   0  0  0  0  0  4           0  0  0
   -4.6555   -0.8994   -6.9099 C   0  0  0  0  0  4           0  0  0
   -4.7942    0.2506   -9.0455 C   0  0  0  0  0  4           0  0  0
   -4.8105   -2.1668   -8.9500 C   0  0  0  0  0  4           0  0  0
    5.5866   -1.3140    2.3286 C   0  0  0  0  0  4           0  0  0
   -5.0835   -1.0447  -11.2017 C   0  0  1  0  0  4           0  0  0
   -5.0249    0.2862   -6.0076 C   0  0  0  0  0  4           0  0  0
   -5.4227    0.2407  -10.4408 C   0  0  0  0  0  4           0  0  0
   -5.4435   -2.2625  -10.3397 C   0  0  0  0  0  4           0  0  0
  1 32  1  0     0  0
  2 32  1  0     0  0
  3 32  1  0     0  0
  4 15  1  0     0  0
  4 34  1  0     0  0
  5 16  1  0     0  0
  5 36  1  0     0  0
  6 33  2  0     0  0
  7 35  1  0     0  0
  8  9  1  0     0  0
  8 21  1  0     0  0
  9 18  2  0     0  0
 10 17  1  0     0  0
 10 19  2  0     0  0
 11 17  2  0     0  0
 11 20  1  0     0  0
 12 18  1  0     0  0
 12 19  1  0     0  0
 13 22  1  0     0  0
 13 33  1  0     0  0
 14 37  1  0     0  0
 14 38  1  0     0  0
 14 39  1  0     0  0
 15 16  2  0     0  0
 15 25  1  0     0  0
 16 26  1  0     0  0
 18 27  1  0     0  0
 19 23  1  0     0  0
 20 23  1  0     0  0
 20 25  2  0     0  0
 21 27  2  0     0  0
 21 40  1  0     0  0
 22 28  1  0     0  0
 22 29  2  0     0  0
 23 26  2  0     0  0
 24 28  2  0     0  0
 24 30  1  0     0  0
 24 32  1  0     0  0
 29 31  1  0     0  0
 30 31  2  0     0  0
 33 40  1  0     0  0
 34 42  1  0     0  0
 35 41  1  0     0  0
 37 42  1  0     0  0
 38 43  1  0     0  0
 39 44  1  0     0  0
 41 43  1  0     0  0
 41 44  1  0     0  0
M  END
> <standard_type>
pIC50

> <# Confs.>
25

> <canonical_smiles>
O=C(CC1=CC(NC2=NC=NC3=CC(OCCCN4CCC(CO)CC4)=C(OC)C=C23)=NN1)NC5=CC=CC(C(F)(F)F)=C5

> <standard_relation>
=

> <Publication_ID>
nan

> <predicted_activity_value>
7.886056647693163

> <actual_activity_value>
7.886056647693163

> <Compound>
9

> <standard_units>
nM

> hash
2551856031523063432

$$$$
8
XXILIB    08252103493D 0   0.00000     0.00000

 44 48  0     1  0            999 V2000
    6.5295    8.0576   -0.0029 F   0  0  0  0  0  1           0  0  0
    7.6330    9.2227    1.4642 F   0  0  0  0  0  1           0  0  0
    5.4840    9.4608    1.2881 F   0  0  0  0  0  1           0  0  0
   -2.9808    0.2177   -4.7450 O   0  0  0  0  0  2           0  0  0
   -0.3851    0.1979   -4.9479 O   0  0  0  0  0  2           0  0  0
    5.5061    2.6433    4.3265 O   0  0  0  0  0  2           0  0  0
   -9.2844   -5.5840   -5.1915 O   0  0  0  0  0  2           0  0  0
    3.1052    1.5029    2.6048 N   0  0  0  0  0  3           0  0  0
    1.9248    1.1852    2.0528 N   0  0  0  0  0  3           0  0  0
   -0.6508    0.0000    1.1900 N   0  0  0  0  0  3           0  0  0
   -2.7546    0.0492    0.0438 N   0  0  0  0  0  3           0  0  0
    1.4153    0.0000   -0.0000 N   0  0  0  0  0  3           0  0  0
    5.8538    3.7591    2.3168 N   0  0  0  0  0  3           0  0  0
   -7.2580   -0.8327   -5.4020 N   0  0  1  0  0  3           0  0  0
   -2.2850    0.1676   -3.5703 C   0  0  0  0  0  4           0  0  0
   -0.8910    0.1559   -3.6794 C   0  0  0  0  0  4           0  0  0
   -1.9895    0.0157    1.1439 C   0  0  0  0  0  4           0  0  0
    2.2541    0.5347    0.9262 C   0  0  0  0  0  4           0  0  0
    0.0000    0.0000    0.0000 C   0  0  0  0  0  4           0  0  0
   -2.1156    0.0764   -1.1331 C   0  0  0  0  0  4           0  0  0
    4.1890    1.0995    1.8779 C   0  0  0  0  0  4           0  0  0
    5.9525    5.0810    2.7911 C   0  0  0  0  0  4           0  0  0
   -0.7109    0.0605   -1.2272 C   0  0  0  0  0  4           0  0  0
    6.2762    7.4382    2.2746 C   0  0  0  0  0  4           0  0  0
   -2.8741    0.1264   -2.3003 C   0  0  0  0  0  4           0  0  0
   -0.1162    0.1093   -2.5146 C   0  0  0  0  0  4           0  0  0
    3.6648    0.4537    0.7812 C   0  0  0  0  0  4           0  0  0
    6.1643    6.1048    1.8580 C   0  0  0  0  0  4           0  0  0
    5.8443    5.3962    4.1496 C   0  0  0  0  0  4           0  0  0
    6.1548    7.7397    3.6353 C   0  0  0  0  0  4           0  0  0
    5.9449    6.7234    4.5675 C   0  0  0  0  0  4           0  0  0
    6.4771    8.5286    1.2736 C   0  0  1  0  0  4           0  0  0
    5.6465    2.6396    3.1037 C   0  0  0  0  0  4           0  0  0
   -4.4030    0.2291   -4.6179 C   0  0  0  0  0  4           0  0  0
   -9.6764   -4.3358   -4.6349 C   0  0  0  0  0  4           0  0  0
    1.0376    0.1851   -5.0366 C   0  0  0  0  0  4           0  0  0
   -6.5599    0.3035   -6.0083 C   0  0  0  0  0  4           0  0  0
   -8.7197   -0.6742   -5.4779 C   0  0  0  0  0  4           0  0  0
   -6.8399   -2.0866   -6.0480 C   0  0  0  0  0  4           0  0  0
    5.5866    1.3597    2.3022 C   0  0  0  0  0  4           0  0  0
   -9.0212   -3.1866   -5.3876 C   0  0  1  0  0  4           0  0  0
   -5.0249    0.2862   -6.0076 C   0  0  0  0  0  4           0  0  0
   -9.4393   -1.8383   -4.7930 C   0  0  0  0  0  4           0  0  0
   -7.4905   -3.2995   -5.3796 C   0  0  0  0  0  4           0  0  0
  1 32  1  0     0  0
  2 32  1  0     0  0
  3 32  1  0     0  0
  4 15  1  0     0  0
  4 34  1  0     0  0
  5 16  1  0     0  0
  5 36  1  0     0  0
  6 33  2  0     0  0
  7 35  1  0     0  0
  8  9  1  0     0  0
  8 21  1  0     0  0
  9 18  2  0     0  0
 10 17  1  0     0  0
 10 19  2  0     0  0
 11 17  2  0     0  0
 11 20  1  0     0  0
 12 18  1  0     0  0
 12 19  1  0     0  0
 13 22  1  0     0  0
 13 33  1  0     0  0
 14 37  1  0     0  0
 14 38  1  0     0  0
 14 39  1  0     0  0
 15 16  2  0     0  0
 15 25  1  0     0  0
 16 26  1  0     0  0
 18 27  1  0     0  0
 19 23  1  0     0  0
 20 23  1  0     0  0
 20 25  2  0     0  0
 21 27  2  0     0  0
 21 40  1  0     0  0
 22 28  1  0     0  0
 22 29  2  0     0  0
 23 26  2  0     0  0
 24 28  2  0     0  0
 24 30  1  0     0  0
 24 32  1  0     0  0
 29 31  1  0     0  0
 30 31  2  0     0  0
 33 40  1  0     0  0
 34 42  1  0     0  0
 35 41  1  0     0  0
 37 42  1  0     0  0
 38 43  1  0     0  0
 39 44  1  0     0  0
 41 43  1  0     0  0
 41 44  1  0     0  0
M  END
> <standard_type>
pIC50

> <# Confs.>
25

> <canonical_smiles>
O=C(CC1=CC(NC2=NC=NC3=CC(OCCCN4CCC(CO)CC4)=C(OC)C=C23)=NN1)NC5=CC=CC(C(F)(F)F)=C5

> <standard_relation>
=

> <Publication_ID>
nan

> <predicted_activity_value>
7.886056647693163

> <actual_activity_value>
7.886056647693163

> <Compound>
9

> <standard_units>
nM

> hash
2551856031523063432

$$$$
8
XXILIB    08252103493D 0   0.00000     0.00000

 44 48  0     1  0            999 V2000
    6.9084   -3.9553    6.8924 F   0  0  0  0  0  1           0  0  0
    5.8183   -3.6508    8.7489 F   0  0  0  0  0  1           0  0  0
    7.9384   -3.2015    8.6530 F   0  0  0  0  0  1           0  0  0
   -2.9808    0.2177   -4.7450 O   0  0  0  0  0  2           0  0  0
   -0.3851    0.1979   -4.9479 O   0  0  0  0  0  2           0  0  0
    5.5083    2.4558    4.4340 O   0  0  0  0  0  2           0  0  0
   -9.2844   -5.5840   -5.1915 O   0  0  0  0  0  2           0  0  0
    3.1052    1.5029    2.6048 N   0  0  0  0  0  3           0  0  0
    1.9248    1.1852    2.0528 N   0  0  0  0  0  3           0  0  0
   -0.6508    0.0000    1.1900 N   0  0  0  0  0  3           0  0  0
   -2.7546    0.0492    0.0438 N   0  0  0  0  0  3           0  0  0
    1.4153   -0.0000    0.0000 N   0  0  0  0  0  3           0  0  0
    5.9298    0.1702    4.3750 N   0  0  0  0  0  3           0  0  0
   -7.2580   -0.8327   -5.4020 N   0  0  1  0  0  3           0  0  0
   -2.2850    0.1676   -3.5703 C   0  0  0  0  0  4           0  0  0
   -0.8910    0.1559   -3.6794 C   0  0  0  0  0  4           0  0  0
   -1.9895    0.0157    1.1439 C   0  0  0  0  0  4           0  0  0
    2.2541    0.5347    0.9262 C   0  0  0  0  0  4           0  0  0
    0.0000    0.0000    0.0000 C   0  0  0  0  0  4           0  0  0
   -2.1156    0.0764   -1.1331 C   0  0  0  0  0  4           0  0  0
    4.1890    1.0995    1.8779 C   0  0  0  0  0  4           0  0  0
    6.0553   -0.0855    5.7537 C   0  0  0  0  0  4           0  0  0
   -0.7109    0.0605   -1.2272 C   0  0  0  0  0  4           0  0  0
    6.4592   -1.7108    7.5210 C   0  0  0  0  0  4           0  0  0
   -2.8741    0.1264   -2.3003 C   0  0  0  0  0  4           0  0  0
   -0.1162    0.1093   -2.5146 C   0  0  0  0  0  4           0  0  0
    3.6648    0.4537    0.7812 C   0  0  0  0  0  4           0  0  0
    6.3297   -1.3979    6.1612 C   0  0  0  0  0  4           0  0  0
    5.9176    0.9214    6.7149 C   0  0  0  0  0  4           0  0  0
    6.3300   -0.6913    8.4704 C   0  0  0  0  0  4           0  0  0
    6.0559    0.6163    8.0691 C   0  0  0  0  0  4           0  0  0
    6.7763   -3.1064    7.9488 C   0  0  1  0  0  4           0  0  0
    5.6615    1.4054    3.8110 C   0  0  0  0  0  4           0  0  0
   -4.4030    0.2291   -4.6179 C   0  0  0  0  0  4           0  0  0
   -9.6764   -4.3358   -4.6349 C   0  0  0  0  0  4           0  0  0
    1.0376    0.1851   -5.0366 C   0  0  0  0  0  4           0  0  0
   -6.5599    0.3035   -6.0083 C   0  0  0  0  0  4           0  0  0
   -8.7197   -0.6742   -5.4779 C   0  0  0  0  0  4           0  0  0
   -6.8399   -2.0866   -6.0480 C   0  0  0  0  0  4           0  0  0
    5.5866    1.3597    2.3022 C   0  0  0  0  0  4           0  0  0
   -9.0212   -3.1866   -5.3876 C   0  0  1  0  0  4           0  0  0
   -5.0249    0.2862   -6.0076 C   0  0  0  0  0  4           0  0  0
   -9.4393   -1.8383   -4.7930 C   0  0  0  0  0  4           0  0  0
   -7.4905   -3.2995   -5.3796 C   0  0  0  0  0  4           0  0  0
  1 32  1  0     0  0
  2 32  1  0     0  0
  3 32  1  0     0  0
  4 15  1  0     0  0
  4 34  1  0     0  0
  5 16  1  0     0  0
  5 36  1  0     0  0
  6 33  2  0     0  0
  7 35  1  0     0  0
  8  9  1  0     0  0
  8 21  1  0     0  0
  9 18  2  0     0  0
 10 17  1  0     0  0
 10 19  2  0     0  0
 11 17  2  0     0  0
 11 20  1  0     0  0
 12 18  1  0     0  0
 12 19  1  0     0  0
 13 22  1  0     0  0
 13 33  1  0     0  0
 14 37  1  0     0  0
 14 38  1  0     0  0
 14 39  1  0     0  0
 15 16  2  0     0  0
 15 25  1  0     0  0
 16 26  1  0     0  0
 18 27  1  0     0  0
 19 23  1  0     0  0
 20 23  1  0     0  0
 20 25  2  0     0  0
 21 27  2  0     0  0
 21 40  1  0     0  0
 22 28  1  0     0  0
 22 29  2  0     0  0
 23 26  2  0     0  0
 24 28  2  0     0  0
 24 30  1  0     0  0
 24 32  1  0     0  0
 29 31  1  0     0  0
 30 31  2  0     0  0
 33 40  1  0     0  0
 34 42  1  0     0  0
 35 41  1  0     0  0
 37 42  1  0     0  0
 38 43  1  0     0  0
 39 44  1  0     0  0
 41 43  1  0     0  0
 41 44  1  0     0  0
M  END
> <standard_type>
pIC50

> <# Confs.>
25

> <canonical_smiles>
O=C(CC1=CC(NC2=NC=NC3=CC(OCCCN4CCC(CO)CC4)=C(OC)C=C23)=NN1)NC5=CC=CC(C(F)(F)F)=C5

> <standard_relation>
=

> <Publication_ID>
nan

> <predicted_activity_value>
7.886056647693163

> <actual_activity_value>
7.886056647693163

> <Compound>
9

> <standard_units>
nM

> hash
2551856031523063432

$$$$
8
XXILIB    08252103493D 0   0.00000     0.00000

 44 48  0     1  0            999 V2000
    6.9084   -7.9466    0.0208 F   0  0  0  0  0  1           0  0  0
    5.8183   -9.4021    1.2127 F   0  0  0  0  0  1           0  0  0
    7.9384   -9.0944    1.5539 F   0  0  0  0  0  1           0  0  0
   -2.9808    0.2177   -4.7450 O   0  0  0  0  0  2           0  0  0
   -0.3851    0.1979   -4.9479 O   0  0  0  0  0  2           0  0  0
    5.5083   -2.6120    4.3437 O   0  0  0  0  0  2           0  0  0
   -9.2844   -5.5840   -5.1915 O   0  0  0  0  0  2           0  0  0
    3.1052   -1.5044    2.6039 N   0  0  0  0  0  3           0  0  0
    1.9248   -1.1852    2.0528 N   0  0  0  0  0  3           0  0  0
   -0.6508    0.0000    1.1900 N   0  0  0  0  0  3           0  0  0
   -2.7546    0.0492    0.0438 N   0  0  0  0  0  3           0  0  0
    1.4153   -0.0000   -0.0000 N   0  0  0  0  0  3           0  0  0
    5.9298   -3.7038    2.3349 N   0  0  0  0  0  3           0  0  0
   -7.2580   -0.8327   -5.4020 N   0  0  1  0  0  3           0  0  0
   -2.2850    0.1676   -3.5703 C   0  0  0  0  0  4           0  0  0
   -0.8910    0.1559   -3.6794 C   0  0  0  0  0  4           0  0  0
   -1.9895    0.0157    1.1439 C   0  0  0  0  0  4           0  0  0
    2.2541   -0.5347    0.9262 C   0  0  0  0  0  4           0  0  0
    0.0000    0.0000    0.0000 C   0  0  0  0  0  4           0  0  0
   -2.1156    0.0764   -1.1331 C   0  0  0  0  0  4           0  0  0
    4.1890   -1.0766    1.8911 C   0  0  0  0  0  4           0  0  0
    6.0553   -5.0256    2.8028 C   0  0  0  0  0  4           0  0  0
   -0.7109    0.0605   -1.2272 C   0  0  0  0  0  4           0  0  0
    6.4592   -7.3688    2.2789 C   0  0  0  0  0  4           0  0  0
   -2.8741    0.1264   -2.3003 C   0  0  0  0  0  4           0  0  0
   -0.1162    0.1093   -2.5146 C   0  0  0  0  0  4           0  0  0
    3.6648   -0.4497    0.7835 C   0  0  0  0  0  4           0  0  0
    6.3297   -6.0347    1.8700 C   0  0  0  0  0  4           0  0  0
    5.9176   -5.3546    4.1554 C   0  0  0  0  0  4           0  0  0
    6.3300   -7.6812    3.6365 C   0  0  0  0  0  4           0  0  0
    6.0559   -6.6799    4.5683 C   0  0  0  0  0  4           0  0  0
    6.7763   -8.4371    1.2842 C   0  0  1  0  0  4           0  0  0
    5.6615   -2.5978    3.1226 C   0  0  0  0  0  4           0  0  0
   -4.4030    0.2291   -4.6179 C   0  0  0  0  0  4           0  0  0
   -9.6764   -4.3358   -4.6349 C   0  0  0  0  0  4           0  0  0
    1.0376    0.1851   -5.0366 C   0  0  0  0  0  4           0  0  0
   -6.5599    0.3035   -6.0083 C   0  0  0  0  0  4           0  0  0
   -8.7197   -0.6742   -5.4779 C   0  0  0  0  0  4           0  0  0
   -6.8399   -2.0866   -6.0480 C   0  0  0  0  0  4           0  0  0
    5.5866   -1.3140    2.3286 C   0  0  0  0  0  4           0  0  0
   -9.0212   -3.1866   -5.3876 C   0  0  1  0  0  4           0  0  0
   -5.0249    0.2862   -6.0076 C   0  0  0  0  0  4           0  0  0
   -9.4393   -1.8383   -4.7930 C   0  0  0  0  0  4           0  0  0
   -7.4905   -3.2995   -5.3796 C   0  0  0  0  0  4           0  0  0
  1 32  1  0     0  0
  2 32  1  0     0  0
  3 32  1  0     0  0
  4 15  1  0     0  0
  4 34  1  0     0  0
  5 16  1  0     0  0
  5 36  1  0     0  0
  6 33  2  0     0  0
  7 35  1  0     0  0
  8  9  1  0     0  0
  8 21  1  0     0  0
  9 18  2  0     0  0
 10 17  1  0     0  0
 10 19  2  0     0  0
 11 17  2  0     0  0
 11 20  1  0     0  0
 12 18  1  0     0  0
 12 19  1  0     0  0
 13 22  1  0     0  0
 13 33  1  0     0  0
 14 37  1  0     0  0
 14 38  1  0     0  0
 14 39  1  0     0  0
 15 16  2  0     0  0
 15 25  1  0     0  0
 16 26  1  0     0  0
 18 27  1  0     0  0
 19 23  1  0     0  0
 20 23  1  0     0  0
 20 25  2  0     0  0
 21 27  2  0     0  0
 21 40  1  0     0  0
 22 28  1  0     0  0
 22 29  2  0     0  0
 23 26  2  0     0  0
 24 28  2  0     0  0
 24 30  1  0     0  0
 24 32  1  0     0  0
 29 31  1  0     0  0
 30 31  2  0     0  0
 33 40  1  0     0  0
 34 42  1  0     0  0
 35 41  1  0     0  0
 37 42  1  0     0  0
 38 43  1  0     0  0
 39 44  1  0     0  0
 41 43  1  0     0  0
 41 44  1  0     0  0
M  END
> <standard_type>
pIC50

> <# Confs.>
25

> <canonical_smiles>
O=C(CC1=CC(NC2=NC=NC3=CC(OCCCN4CCC(CO)CC4)=C(OC)C=C23)=NN1)NC5=CC=CC(C(F)(F)F)=C5

> <standard_relation>
=

> <Publication_ID>
nan

> <predicted_activity_value>
7.886056647693163

> <actual_activity_value>
7.886056647693163

> <Compound>
9

> <standard_units>
nM

> hash
2551856031523063432

$$$$
8
XXILIB    08252103493D 0   0.00000     0.00000

 44 48  0     1  0            999 V2000
    6.5295    4.0313    6.9766 F   0  0  0  0  0  1           0  0  0
    7.6330    3.3433    8.7192 F   0  0  0  0  0  1           0  0  0
    5.4840    3.6148    8.8373 F   0  0  0  0  0  1           0  0  0
   -2.9808    0.2177   -4.7450 O   0  0  0  0  0  2           0  0  0
   -0.3851    0.1979   -4.9479 O   0  0  0  0  0  2           0  0  0
    5.5061   -2.4252    4.4524 O   0  0  0  0  0  2           0  0  0
  -11.1560   -0.2657  -10.6239 O   0  0  0  0  0  2           0  0  0
    3.1052   -1.5044    2.6039 N   0  0  0  0  0  3           0  0  0
    1.9248   -1.1852    2.0528 N   0  0  0  0  0  3           0  0  0
   -0.6508    0.0000    1.1900 N   0  0  0  0  0  3           0  0  0
   -2.7546    0.0492    0.0438 N   0  0  0  0  0  3           0  0  0
    1.4153    0.0000    0.0000 N   0  0  0  0  0  3           0  0  0
    5.8538   -0.1268    4.4139 N   0  0  0  0  0  3           0  0  0
   -7.2438    0.3578   -7.3026 N   0  0  1  0  0  3           0  0  0
   -2.2850    0.1676   -3.5703 C   0  0  0  0  0  4           0  0  0
   -0.8910    0.1559   -3.6794 C   0  0  0  0  0  4           0  0  0
   -1.9895    0.0157    1.1439 C   0  0  0  0  0  4           0  0  0
    2.2541   -0.5347    0.9262 C   0  0  0  0  0  4           0  0  0
    0.0000    0.0000    0.0000 C   0  0  0  0  0  4           0  0  0
   -2.1156    0.0764   -1.1331 C   0  0  0  0  0  4           0  0  0
    4.1890   -1.0766    1.8911 C   0  0  0  0  0  4           0  0  0
    5.9525    0.1234    5.7958 C   0  0  0  0  0  4           0  0  0
   -0.7109    0.0605   -1.2272 C   0  0  0  0  0  4           0  0  0
    6.2762    1.7493    7.5790 C   0  0  0  0  0  4           0  0  0
   -2.8741    0.1264   -2.3003 C   0  0  0  0  0  4           0  0  0
   -0.1162    0.1093   -2.5146 C   0  0  0  0  0  4           0  0  0
    3.6648   -0.4497    0.7835 C   0  0  0  0  0  4           0  0  0
    6.1643    1.4433    6.2159 C   0  0  0  0  0  4           0  0  0
    5.8443   -0.8955    6.7481 C   0  0  0  0  0  4           0  0  0
    6.1548    0.7216    8.5204 C   0  0  0  0  0  4           0  0  0
    5.9449   -0.5939    8.1064 C   0  0  0  0  0  4           0  0  0
    6.4771    3.1613    8.0228 C   0  0  1  0  0  4           0  0  0
    5.6465   -1.3681    3.8378 C   0  0  0  0  0  4           0  0  0
   -4.4030    0.2291   -4.6179 C   0  0  0  0  0  4           0  0  0
   -9.7453   -0.3898  -10.7511 C   0  0  0  0  0  4           0  0  0
    1.0376    0.1851   -5.0366 C   0  0  0  0  0  4           0  0  0
   -6.5599    0.3035   -6.0083 C   0  0  0  0  0  4           0  0  0
   -6.9052   -0.8018   -8.1440 C   0  0  0  0  0  4           0  0  0
   -8.6988    0.4439   -7.1025 C   0  0  0  0  0  4           0  0  0
    5.5866   -1.3140    2.3286 C   0  0  0  0  0  4           0  0  0
   -9.1005   -0.5734   -9.3846 C   0  0  1  0  0  4           0  0  0
   -5.0249    0.2862   -6.0076 C   0  0  0  0  0  4           0  0  0
   -7.5802   -0.7078   -9.5142 C   0  0  0  0  0  4           0  0  0
   -9.4352    0.5861   -8.4363 C   0  0  0  0  0  4           0  0  0
  1 32  1  0     0  0
  2 32  1  0     0  0
  3 32  1  0     0  0
  4 15  1  0     0  0
  4 34  1  0     0  0
  5 16  1  0     0  0
  5 36  1  0     0  0
  6 33  2  0     0  0
  7 35  1  0     0  0
  8  9  1  0     0  0
  8 21  1  0     0  0
  9 18  2  0     0  0
 10 17  1  0     0  0
 10 19  2  0     0  0
 11 17  2  0     0  0
 11 20  1  0     0  0
 12 18  1  0     0  0
 12 19  1  0     0  0
 13 22  1  0     0  0
 13 33  1  0     0  0
 14 37  1  0     0  0
 14 38  1  0     0  0
 14 39  1  0     0  0
 15 16  2  0     0  0
 15 25  1  0     0  0
 16 26  1  0     0  0
 18 27  1  0     0  0
 19 23  1  0     0  0
 20 23  1  0     0  0
 20 25  2  0     0  0
 21 27  2  0     0  0
 21 40  1  0     0  0
 22 28  1  0     0  0
 22 29  2  0     0  0
 23 26  2  0     0  0
 24 28  2  0     0  0
 24 30  1  0     0  0
 24 32  1  0     0  0
 29 31  1  0     0  0
 30 31  2  0     0  0
 33 40  1  0     0  0
 34 42  1  0     0  0
 35 41  1  0     0  0
 37 42  1  0     0  0
 38 43  1  0     0  0
 39 44  1  0     0  0
 41 43  1  0     0  0
 41 44  1  0     0  0
M  END
> <standard_type>
pIC50

> <# Confs.>
25

> <canonical_smiles>
O=C(CC1=CC(NC2=NC=NC3=CC(OCCCN4CCC(CO)CC4)=C(OC)C=C23)=NN1)NC5=CC=CC(C(F)(F)F)=C5

> <standard_relation>
=

> <Publication_ID>
nan

> <predicted_activity_value>
7.886056647693163

> <actual_activity_value>
7.886056647693163

> <Compound>
9

> <standard_units>
nM

> hash
2551856031523063432

$$$$
8
XXILIB    08252103493D 0   0.00000     0.00000

 44 48  0     1  0            999 V2000
    8.7285    4.7975    0.3681 F   0  0  0  0  0  1           0  0  0
   10.1295    5.4602    1.8930 F   0  0  0  0  0  1           0  0  0
    8.1832    6.4038    1.7286 F   0  0  0  0  0  1           0  0  0
   -2.9808    0.2177   -4.7450 O   0  0  0  0  0  2           0  0  0
   -0.3851    0.1979   -4.9479 O   0  0  0  0  0  2           0  0  0
    5.8999   -0.1746    4.4156 O   0  0  0  0  0  2           0  0  0
  -11.1034    4.6607   -4.2411 O   0  0  0  0  0  2           0  0  0
    3.1052   -1.5044    2.6039 N   0  0  0  0  0  3           0  0  0
    1.9248   -1.1852    2.0528 N   0  0  0  0  0  3           0  0  0
   -0.6508    0.0000    1.1900 N   0  0  0  0  0  3           0  0  0
   -2.7546    0.0492    0.0438 N   0  0  0  0  0  3           0  0  0
    1.4153    0.0000    0.0000 N   0  0  0  0  0  3           0  0  0
    6.6311    0.8584    2.4655 N   0  0  0  0  0  3           0  0  0
   -7.2329    1.4084   -5.3211 N   0  0  1  0  0  3           0  0  0
   -2.2850    0.1676   -3.5703 C   0  0  0  0  0  4           0  0  0
   -0.8910    0.1559   -3.6794 C   0  0  0  0  0  4           0  0  0
   -1.9895    0.0157    1.1439 C   0  0  0  0  0  4           0  0  0
    2.2541   -0.5347    0.9262 C   0  0  0  0  0  4           0  0  0
    0.0000    0.0000    0.0000 C   0  0  0  0  0  4           0  0  0
   -2.1156    0.0764   -1.1331 C   0  0  0  0  0  4           0  0  0
    4.1890   -1.0766    1.8911 C   0  0  0  0  0  4           0  0  0
    7.1528    2.0488    3.0066 C   0  0  0  0  0  4           0  0  0
   -0.7109    0.0605   -1.2272 C   0  0  0  0  0  4           0  0  0
    8.2457    4.1882    2.6109 C   0  0  0  0  0  4           0  0  0
   -2.8741    0.1264   -2.3003 C   0  0  0  0  0  4           0  0  0
   -0.1162    0.1093   -2.5146 C   0  0  0  0  0  4           0  0  0
    3.6648   -0.4497    0.7835 C   0  0  0  0  0  4           0  0  0
    7.7068    2.9885    2.1270 C   0  0  0  0  0  4           0  0  0
    7.1315    2.3166    4.3794 C   0  0  0  0  0  4           0  0  0
    8.2074    4.4472    3.9852 C   0  0  0  0  0  4           0  0  0
    7.6577    3.5141    4.8644 C   0  0  0  0  0  4           0  0  0
    8.8126    5.1975    1.6669 C   0  0  1  0  0  4           0  0  0
    6.0522   -0.1659    3.1943 C   0  0  0  0  0  4           0  0  0
   -4.4030    0.2291   -4.6179 C   0  0  0  0  0  4           0  0  0
   -9.6897    4.8096   -4.2703 C   0  0  0  0  0  4           0  0  0
    1.0376    0.1851   -5.0366 C   0  0  0  0  0  4           0  0  0
   -6.5599    0.3035   -6.0083 C   0  0  0  0  0  4           0  0  0
   -6.8667    2.7110   -5.9011 C   0  0  0  0  0  4           0  0  0
   -8.6909    1.2161   -5.3617 C   0  0  0  0  0  4           0  0  0
    5.5866   -1.3140    2.3286 C   0  0  0  0  0  4           0  0  0
   -9.0543    3.7074   -5.1058 C   0  0  1  0  0  4           0  0  0
   -5.0249    0.2862   -6.0076 C   0  0  0  0  0  4           0  0  0
   -7.5308    3.8618   -5.1416 C   0  0  0  0  0  4           0  0  0
   -9.4175    2.3122   -4.5794 C   0  0  0  0  0  4           0  0  0
  1 32  1  0     0  0
  2 32  1  0     0  0
  3 32  1  0     0  0
  4 15  1  0     0  0
  4 34  1  0     0  0
  5 16  1  0     0  0
  5 36  1  0     0  0
  6 33  2  0     0  0
  7 35  1  0     0  0
  8  9  1  0     0  0
  8 21  1  0     0  0
  9 18  2  0     0  0
 10 17  1  0     0  0
 10 19  2  0     0  0
 11 17  2  0     0  0
 11 20  1  0     0  0
 12 18  1  0     0  0
 12 19  1  0     0  0
 13 22  1  0     0  0
 13 33  1  0     0  0
 14 37  1  0     0  0
 14 38  1  0     0  0
 14 39  1  0     0  0
 15 16  2  0     0  0
 15 25  1  0     0  0
 16 26  1  0     0  0
 18 27  1  0     0  0
 19 23  1  0     0  0
 20 23  1  0     0  0
 20 25  2  0     0  0
 21 27  2  0     0  0
 21 40  1  0     0  0
 22 28  1  0     0  0
 22 29  2  0     0  0
 23 26  2  0     0  0
 24 28  2  0     0  0
 24 30  1  0     0  0
 24 32  1  0     0  0
 29 31  1  0     0  0
 30 31  2  0     0  0
 33 40  1  0     0  0
 34 42  1  0     0  0
 35 41  1  0     0  0
 37 42  1  0     0  0
 38 43  1  0     0  0
 39 44  1  0     0  0
 41 43  1  0     0  0
 41 44  1  0     0  0
M  END
> <standard_type>
pIC50

> <# Confs.>
25

> <canonical_smiles>
O=C(CC1=CC(NC2=NC=NC3=CC(OCCCN4CCC(CO)CC4)=C(OC)C=C23)=NN1)NC5=CC=CC(C(F)(F)F)=C5

> <standard_relation>
=

> <Publication_ID>
nan

> <predicted_activity_value>
7.886056647693163

> <actual_activity_value>
7.886056647693163

> <Compound>
9

> <standard_units>
nM

> hash
2551856031523063432

$$$$
8
XXILIB    08252103493D 0   0.00000     0.00000

 44 48  0     1  0            999 V2000
    8.7285    2.7175   -3.9707 F   0  0  0  0  0  1           0  0  0
   10.1295    4.3695   -3.7821 F   0  0  0  0  0  1           0  0  0
    8.1832    4.6990   -4.6816 F   0  0  0  0  0  1           0  0  0
   -2.9808    0.2177   -4.7450 O   0  0  0  0  0  2           0  0  0
   -0.3851    0.1979   -4.9479 O   0  0  0  0  0  2           0  0  0
    5.8999    3.7367    2.3591 O   0  0  0  0  0  2           0  0  0
  -11.1034    4.6607   -4.2411 O   0  0  0  0  0  2           0  0  0
    3.1052    1.5029    2.6048 N   0  0  0  0  0  3           0  0  0
    1.9248    1.1852    2.0528 N   0  0  0  0  0  3           0  0  0
   -0.6508    0.0000    1.1900 N   0  0  0  0  0  3           0  0  0
   -2.7546    0.0492    0.0438 N   0  0  0  0  0  3           0  0  0
    1.4153    0.0000   -0.0000 N   0  0  0  0  0  3           0  0  0
    6.6311    2.5644    0.4894 N   0  0  0  0  0  3           0  0  0
   -7.2329    1.4084   -5.3211 N   0  0  1  0  0  3           0  0  0
   -2.2850    0.1676   -3.5703 C   0  0  0  0  0  4           0  0  0
   -0.8910    0.1559   -3.6794 C   0  0  0  0  0  4           0  0  0
   -1.9895    0.0157    1.1439 C   0  0  0  0  0  4           0  0  0
    2.2541    0.5347    0.9262 C   0  0  0  0  0  4           0  0  0
    0.0000    0.0000    0.0000 C   0  0  0  0  0  4           0  0  0
   -2.1156    0.0764   -1.1331 C   0  0  0  0  0  4           0  0  0
    4.1890    1.0995    1.8779 C   0  0  0  0  0  4           0  0  0
    7.1528    3.6282   -0.2711 C   0  0  0  0  0  4           0  0  0
   -0.7109    0.0605   -1.2272 C   0  0  0  0  0  4           0  0  0
    8.2457    4.3553   -2.3216 C   0  0  0  0  0  4           0  0  0
   -2.8741    0.1264   -2.3003 C   0  0  0  0  0  4           0  0  0
   -0.1162    0.1093   -2.5146 C   0  0  0  0  0  4           0  0  0
    3.6648    0.4537    0.7812 C   0  0  0  0  0  4           0  0  0
    7.7068    3.3363   -1.5246 C   0  0  0  0  0  4           0  0  0
    7.1315    4.9509    0.1835 C   0  0  0  0  0  4           0  0  0
    8.2074    5.6749   -1.8588 C   0  0  0  0  0  4           0  0  0
    7.6577    5.9697   -0.6111 C   0  0  0  0  0  4           0  0  0
    8.8126    4.0424   -3.6677 C   0  0  1  0  0  4           0  0  0
    6.0522    2.6834    1.7409 C   0  0  0  0  0  4           0  0  0
   -4.4030    0.2291   -4.6179 C   0  0  0  0  0  4           0  0  0
   -9.6897    4.8096   -4.2703 C   0  0  0  0  0  4           0  0  0
    1.0376    0.1851   -5.0366 C   0  0  0  0  0  4           0  0  0
   -6.5599    0.3035   -6.0083 C   0  0  0  0  0  4           0  0  0
   -6.8667    2.7110   -5.9011 C   0  0  0  0  0  4           0  0  0
   -8.6909    1.2161   -5.3617 C   0  0  0  0  0  4           0  0  0
    5.5866    1.3597    2.3022 C   0  0  0  0  0  4           0  0  0
   -9.0543    3.7074   -5.1058 C   0  0  1  0  0  4           0  0  0
   -5.0249    0.2862   -6.0076 C   0  0  0  0  0  4           0  0  0
   -7.5308    3.8618   -5.1416 C   0  0  0  0  0  4           0  0  0
   -9.4175    2.3122   -4.5794 C   0  0  0  0  0  4           0  0  0
  1 32  1  0     0  0
  2 32  1  0     0  0
  3 32  1  0     0  0
  4 15  1  0     0  0
  4 34  1  0     0  0
  5 16  1  0     0  0
  5 36  1  0     0  0
  6 33  2  0     0  0
  7 35  1  0     0  0
  8  9  1  0     0  0
  8 21  1  0     0  0
  9 18  2  0     0  0
 10 17  1  0     0  0
 10 19  2  0     0  0
 11 17  2  0     0  0
 11 20  1  0     0  0
 12 18  1  0     0  0
 12 19  1  0     0  0
 13 22  1  0     0  0
 13 33  1  0     0  0
 14 37  1  0     0  0
 14 38  1  0     0  0
 14 39  1  0     0  0
 15 16  2  0     0  0
 15 25  1  0     0  0
 16 26  1  0     0  0
 18 27  1  0     0  0
 19 23  1  0     0  0
 20 23  1  0     0  0
 20 25  2  0     0  0
 21 27  2  0     0  0
 21 40  1  0     0  0
 22 28  1  0     0  0
 22 29  2  0     0  0
 23 26  2  0     0  0
 24 28  2  0     0  0
 24 30  1  0     0  0
 24 32  1  0     0  0
 29 31  1  0     0  0
 30 31  2  0     0  0
 33 40  1  0     0  0
 34 42  1  0     0  0
 35 41  1  0     0  0
 37 42  1  0     0  0
 38 43  1  0     0  0
 39 44  1  0     0  0
 41 43  1  0     0  0
 41 44  1  0     0  0
M  END
> <standard_type>
pIC50

> <# Confs.>
25

> <canonical_smiles>
O=C(CC1=CC(NC2=NC=NC3=CC(OCCCN4CCC(CO)CC4)=C(OC)C=C23)=NN1)NC5=CC=CC(C(F)(F)F)=C5

> <standard_relation>
=

> <Publication_ID>
nan

> <predicted_activity_value>
7.886056647693163

> <actual_activity_value>
7.886056647693163

> <Compound>
9

> <standard_units>
nM

> hash
2551856031523063432

$$$$
8
XXILIB    08252103493D 0   0.00000     0.00000

 44 48  0     1  0            999 V2000
    9.0271   -2.5401   -3.8134 F   0  0  0  0  0  1           0  0  0
    8.4802   -4.4832   -4.6212 F   0  0  0  0  0  1           0  0  0
   10.3793   -4.2302   -3.6037 F   0  0  0  0  0  1           0  0  0
   -2.9808    0.2177   -4.7450 O   0  0  0  0  0  2           0  0  0
   -0.3851    0.1979   -4.9479 O   0  0  0  0  0  2           0  0  0
    5.9427   -3.6852    2.3737 O   0  0  0  0  0  2           0  0  0
  -11.1034    4.6607   -4.2411 O   0  0  0  0  0  2           0  0  0
    3.1052   -1.5044    2.6039 N   0  0  0  0  0  3           0  0  0
    1.9248   -1.1852    2.0528 N   0  0  0  0  0  3           0  0  0
   -0.6508    0.0000    1.1900 N   0  0  0  0  0  3           0  0  0
   -2.7546    0.0492    0.0438 N   0  0  0  0  0  3           0  0  0
    1.4153   -0.0000   -0.0000 N   0  0  0  0  0  3           0  0  0
    6.7009   -2.4830    0.5340 N   0  0  0  0  0  3           0  0  0
   -7.2329    1.4084   -5.3211 N   0  0  1  0  0  3           0  0  0
   -2.2850    0.1676   -3.5703 C   0  0  0  0  0  4           0  0  0
   -0.8910    0.1559   -3.6794 C   0  0  0  0  0  4           0  0  0
   -1.9895    0.0157    1.1439 C   0  0  0  0  0  4           0  0  0
    2.2541   -0.5347    0.9262 C   0  0  0  0  0  4           0  0  0
    0.0000    0.0000    0.0000 C   0  0  0  0  0  4           0  0  0
   -2.1156    0.0764   -1.1331 C   0  0  0  0  0  4           0  0  0
    4.1890   -1.0766    1.8911 C   0  0  0  0  0  4           0  0  0
    7.2568   -3.5310   -0.2241 C   0  0  0  0  0  4           0  0  0
   -0.7109    0.0605   -1.2272 C   0  0  0  0  0  4           0  0  0
    8.4128   -4.2201   -2.2531 C   0  0  0  0  0  4           0  0  0
   -2.8741    0.1264   -2.3003 C   0  0  0  0  0  4           0  0  0
   -0.1162    0.1093   -2.5146 C   0  0  0  0  0  4           0  0  0
    3.6648   -0.4497    0.7835 C   0  0  0  0  0  4           0  0  0
    7.8492   -3.2160   -1.4543 C   0  0  0  0  0  4           0  0  0
    7.2360   -4.8599    0.2123 C   0  0  0  0  0  4           0  0  0
    8.3946   -5.5431   -1.7986 C   0  0  0  0  0  4           0  0  0
    7.8051   -5.8612   -0.5750 C   0  0  0  0  0  4           0  0  0
    9.0651   -3.8758   -3.5520 C   0  0  1  0  0  4           0  0  0
    6.0822   -2.6253    1.7639 C   0  0  0  0  0  4           0  0  0
   -4.4030    0.2291   -4.6179 C   0  0  0  0  0  4           0  0  0
   -9.6897    4.8096   -4.2703 C   0  0  0  0  0  4           0  0  0
    1.0376    0.1851   -5.0366 C   0  0  0  0  0  4           0  0  0
   -6.5599    0.3035   -6.0083 C   0  0  0  0  0  4           0  0  0
   -6.8667    2.7110   -5.9011 C   0  0  0  0  0  4           0  0  0
   -8.6909    1.2161   -5.3617 C   0  0  0  0  0  4           0  0  0
    5.5866   -1.3140    2.3286 C   0  0  0  0  0  4           0  0  0
   -9.0543    3.7074   -5.1058 C   0  0  1  0  0  4           0  0  0
   -5.0249    0.2862   -6.0076 C   0  0  0  0  0  4           0  0  0
   -7.5308    3.8618   -5.1416 C   0  0  0  0  0  4           0  0  0
   -9.4175    2.3122   -4.5794 C   0  0  0  0  0  4           0  0  0
  1 32  1  0     0  0
  2 32  1  0     0  0
  3 32  1  0     0  0
  4 15  1  0     0  0
  4 34  1  0     0  0
  5 16  1  0     0  0
  5 36  1  0     0  0
  6 33  2  0     0  0
  7 35  1  0     0  0
  8  9  1  0     0  0
  8 21  1  0     0  0
  9 18  2  0     0  0
 10 17  1  0     0  0
 10 19  2  0     0  0
 11 17  2  0     0  0
 11 20  1  0     0  0
 12 18  1  0     0  0
 12 19  1  0     0  0
 13 22  1  0     0  0
 13 33  1  0     0  0
 14 37  1  0     0  0
 14 38  1  0     0  0
 14 39  1  0     0  0
 15 16  2  0     0  0
 15 25  1  0     0  0
 16 26  1  0     0  0
 18 27  1  0     0  0
 19 23  1  0     0  0
 20 23  1  0     0  0
 20 25  2  0     0  0
 21 27  2  0     0  0
 21 40  1  0     0  0
 22 28  1  0     0  0
 22 29  2  0     0  0
 23 26  2  0     0  0
 24 28  2  0     0  0
 24 30  1  0     0  0
 24 32  1  0     0  0
 29 31  1  0     0  0
 30 31  2  0     0  0
 33 40  1  0     0  0
 34 42  1  0     0  0
 35 41  1  0     0  0
 37 42  1  0     0  0
 38 43  1  0     0  0
 39 44  1  0     0  0
 41 43  1  0     0  0
 41 44  1  0     0  0
M  END
> <standard_type>
pIC50

> <# Confs.>
25

> <canonical_smiles>
O=C(CC1=CC(NC2=NC=NC3=CC(OCCCN4CCC(CO)CC4)=C(OC)C=C23)=NN1)NC5=CC=CC(C(F)(F)F)=C5

> <standard_relation>
=

> <Publication_ID>
nan

> <predicted_activity_value>
7.886056647693163

> <actual_activity_value>
7.886056647693163

> <Compound>
9

> <standard_units>
nM

> hash
2551856031523063432

$$$$
8
XXILIB    08252103493D 0   0.00000     0.00000

 44 48  0     1  0            999 V2000
    6.5295    4.0313    6.9766 F   0  0  0  0  0  1           0  0  0
    7.6330    3.3433    8.7192 F   0  0  0  0  0  1           0  0  0
    5.4840    3.6148    8.8373 F   0  0  0  0  0  1           0  0  0
   -2.9808    0.2177   -4.7450 O   0  0  0  0  0  2           0  0  0
   -0.3851    0.1979   -4.9479 O   0  0  0  0  0  2           0  0  0
    5.5061   -2.4252    4.4524 O   0  0  0  0  0  2           0  0  0
   -6.6432    4.1494  -12.4621 O   0  0  0  0  0  2           0  0  0
    3.1052   -1.5044    2.6039 N   0  0  0  0  0  3           0  0  0
    1.9248   -1.1852    2.0528 N   0  0  0  0  0  3           0  0  0
   -0.6508    0.0000    1.1900 N   0  0  0  0  0  3           0  0  0
   -2.7546    0.0492    0.0438 N   0  0  0  0  0  3           0  0  0
    1.4153    0.0000    0.0000 N   0  0  0  0  0  3           0  0  0
    5.8538   -0.1268    4.4139 N   0  0  0  0  0  3           0  0  0
   -5.1804    1.6628   -8.1724 N   0  0  1  0  0  3           0  0  0
   -2.2850    0.1676   -3.5703 C   0  0  0  0  0  4           0  0  0
   -0.8910    0.1559   -3.6794 C   0  0  0  0  0  4           0  0  0
   -1.9895    0.0157    1.1439 C   0  0  0  0  0  4           0  0  0
    2.2541   -0.5347    0.9262 C   0  0  0  0  0  4           0  0  0
    0.0000    0.0000    0.0000 C   0  0  0  0  0  4           0  0  0
   -2.1156    0.0764   -1.1331 C   0  0  0  0  0  4           0  0  0
    4.1890   -1.0766    1.8911 C   0  0  0  0  0  4           0  0  0
    5.9525    0.1234    5.7958 C   0  0  0  0  0  4           0  0  0
   -0.7109    0.0605   -1.2272 C   0  0  0  0  0  4           0  0  0
    6.2762    1.7493    7.5790 C   0  0  0  0  0  4           0  0  0
   -2.8741    0.1264   -2.3003 C   0  0  0  0  0  4           0  0  0
   -0.1162    0.1093   -2.5146 C   0  0  0  0  0  4           0  0  0
    3.6648   -0.4497    0.7835 C   0  0  0  0  0  4           0  0  0
    6.1643    1.4433    6.2159 C   0  0  0  0  0  4           0  0  0
    5.8443   -0.8955    6.7481 C   0  0  0  0  0  4           0  0  0
    6.1548    0.7216    8.5204 C   0  0  0  0  0  4           0  0  0
    5.9449   -0.5939    8.1064 C   0  0  0  0  0  4           0  0  0
    6.4771    3.1613    8.0228 C   0  0  1  0  0  4           0  0  0
    5.6465   -1.3681    3.8378 C   0  0  0  0  0  4           0  0  0
   -4.4030    0.2291   -4.6179 C   0  0  0  0  0  4           0  0  0
   -7.1662    3.0261  -11.7649 C   0  0  0  0  0  4           0  0  0
    1.0376    0.1851   -5.0366 C   0  0  0  0  0  4           0  0  0
   -4.6283    1.5251   -6.8225 C   0  0  0  0  0  4           0  0  0
   -6.6517    1.7106   -8.1542 C   0  0  0  0  0  4           0  0  0
   -4.6324    2.8631   -8.8230 C   0  0  0  0  0  4           0  0  0
    5.5866   -1.3140    2.3286 C   0  0  0  0  0  4           0  0  0
   -6.6608    3.0064  -10.3294 C   0  0  1  0  0  4           0  0  0
   -5.0249    0.2862   -6.0076 C   0  0  0  0  0  4           0  0  0
   -7.2206    1.7983   -9.5722 C   0  0  0  0  0  4           0  0  0
   -5.1274    2.9878  -10.2655 C   0  0  0  0  0  4           0  0  0
  1 32  1  0     0  0
  2 32  1  0     0  0
  3 32  1  0     0  0
  4 15  1  0     0  0
  4 34  1  0     0  0
  5 16  1  0     0  0
  5 36  1  0     0  0
  6 33  2  0     0  0
  7 35  1  0     0  0
  8  9  1  0     0  0
  8 21  1  0     0  0
  9 18  2  0     0  0
 10 17  1  0     0  0
 10 19  2  0     0  0
 11 17  2  0     0  0
 11 20  1  0     0  0
 12 18  1  0     0  0
 12 19  1  0     0  0
 13 22  1  0     0  0
 13 33  1  0     0  0
 14 37  1  0     0  0
 14 38  1  0     0  0
 14 39  1  0     0  0
 15 16  2  0     0  0
 15 25  1  0     0  0
 16 26  1  0     0  0
 18 27  1  0     0  0
 19 23  1  0     0  0
 20 23  1  0     0  0
 20 25  2  0     0  0
 21 27  2  0     0  0
 21 40  1  0     0  0
 22 28  1  0     0  0
 22 29  2  0     0  0
 23 26  2  0     0  0
 24 28  2  0     0  0
 24 30  1  0     0  0
 24 32  1  0     0  0
 29 31  1  0     0  0
 30 31  2  0     0  0
 33 40  1  0     0  0
 34 42  1  0     0  0
 35 41  1  0     0  0
 37 42  1  0     0  0
 38 43  1  0     0  0
 39 44  1  0     0  0
 41 43  1  0     0  0
 41 44  1  0     0  0
M  END
> <standard_type>
pIC50

> <# Confs.>
25

> <canonical_smiles>
O=C(CC1=CC(NC2=NC=NC3=CC(OCCCN4CCC(CO)CC4)=C(OC)C=C23)=NN1)NC5=CC=CC(C(F)(F)F)=C5

> <standard_relation>
=

> <Publication_ID>
nan

> <predicted_activity_value>
7.886056647693163

> <actual_activity_value>
7.886056647693163

> <Compound>
9

> <standard_units>
nM

> hash
2551856031523063432

$$$$
8
XXILIB    08252103493D 0   0.00000     0.00000

 44 48  0     1  0            999 V2000
    6.5295    4.0313    6.9766 F   0  0  0  0  0  1           0  0  0
    7.6330    3.3433    8.7192 F   0  0  0  0  0  1           0  0  0
    5.4840    3.6148    8.8373 F   0  0  0  0  0  1           0  0  0
   -2.9808    0.2177   -4.7450 O   0  0  0  0  0  2           0  0  0
   -0.3851    0.1979   -4.9479 O   0  0  0  0  0  2           0  0  0
    5.5061   -2.4252    4.4524 O   0  0  0  0  0  2           0  0  0
   -6.1316   -7.2689   -6.9562 O   0  0  0  0  0  2           0  0  0
    3.1052   -1.5044    2.6039 N   0  0  0  0  0  3           0  0  0
    1.9248   -1.1852    2.0528 N   0  0  0  0  0  3           0  0  0
   -0.6508    0.0000    1.1900 N   0  0  0  0  0  3           0  0  0
   -2.7546    0.0492    0.0438 N   0  0  0  0  0  3           0  0  0
    1.4153    0.0000    0.0000 N   0  0  0  0  0  3           0  0  0
    5.8538   -0.1268    4.4139 N   0  0  0  0  0  3           0  0  0
   -5.0239   -2.2438   -6.4598 N   0  0  1  0  0  3           0  0  0
   -2.2850    0.1676   -3.5703 C   0  0  0  0  0  4           0  0  0
   -0.8910    0.1559   -3.6794 C   0  0  0  0  0  4           0  0  0
   -1.9895    0.0157    1.1439 C   0  0  0  0  0  4           0  0  0
    2.2541   -0.5347    0.9262 C   0  0  0  0  0  4           0  0  0
    0.0000   -0.0000    0.0000 C   0  0  0  0  0  4           0  0  0
   -2.1156    0.0764   -1.1331 C   0  0  0  0  0  4           0  0  0
    4.1890   -1.0766    1.8911 C   0  0  0  0  0  4           0  0  0
    5.9525    0.1234    5.7958 C   0  0  0  0  0  4           0  0  0
   -0.7109    0.0605   -1.2272 C   0  0  0  0  0  4           0  0  0
    6.2762    1.7493    7.5790 C   0  0  0  0  0  4           0  0  0
   -2.8741    0.1264   -2.3003 C   0  0  0  0  0  4           0  0  0
   -0.1162    0.1093   -2.5146 C   0  0  0  0  0  4           0  0  0
    3.6648   -0.4497    0.7835 C   0  0  0  0  0  4           0  0  0
    6.1643    1.4433    6.2159 C   0  0  0  0  0  4           0  0  0
    5.8443   -0.8955    6.7481 C   0  0  0  0  0  4           0  0  0
    6.1548    0.7216    8.5204 C   0  0  0  0  0  4           0  0  0
    5.9449   -0.5939    8.1064 C   0  0  0  0  0  4           0  0  0
    6.4771    3.1613    8.0228 C   0  0  1  0  0  4           0  0  0
    5.6465   -1.3681    3.8378 C   0  0  0  0  0  4           0  0  0
   -4.4030    0.2291   -4.6179 C   0  0  0  0  0  4           0  0  0
   -6.6215   -6.2469   -6.0976 C   0  0  0  0  0  4           0  0  0
    1.0376    0.1851   -5.0366 C   0  0  0  0  0  4           0  0  0
   -4.6555   -0.8994   -6.9099 C   0  0  0  0  0  4           0  0  0
   -6.4795   -2.3768   -6.2834 C   0  0  0  0  0  4           0  0  0
   -4.5244   -3.2499   -7.4098 C   0  0  0  0  0  4           0  0  0
    5.5866   -1.3140    2.3286 C   0  0  0  0  0  4           0  0  0
   -6.3240   -4.8726   -6.6802 C   0  0  1  0  0  4           0  0  0
   -5.0249    0.2862   -6.0076 C   0  0  0  0  0  4           0  0  0
   -6.8492   -3.7665   -5.7600 C   0  0  0  0  0  4           0  0  0
   -4.8221   -4.6696   -6.9228 C   0  0  0  0  0  4           0  0  0
  1 32  1  0     0  0
  2 32  1  0     0  0
  3 32  1  0     0  0
  4 15  1  0     0  0
  4 34  1  0     0  0
  5 16  1  0     0  0
  5 36  1  0     0  0
  6 33  2  0     0  0
  7 35  1  0     0  0
  8  9  1  0     0  0
  8 21  1  0     0  0
  9 18  2  0     0  0
 10 17  1  0     0  0
 10 19  2  0     0  0
 11 17  2  0     0  0
 11 20  1  0     0  0
 12 18  1  0     0  0
 12 19  1  0     0  0
 13 22  1  0     0  0
 13 33  1  0     0  0
 14 37  1  0     0  0
 14 38  1  0     0  0
 14 39  1  0     0  0
 15 16  2  0     0  0
 15 25  1  0     0  0
 16 26  1  0     0  0
 18 27  1  0     0  0
 19 23  1  0     0  0
 20 23  1  0     0  0
 20 25  2  0     0  0
 21 27  2  0     0  0
 21 40  1  0     0  0
 22 28  1  0     0  0
 22 29  2  0     0  0
 23 26  2  0     0  0
 24 28  2  0     0  0
 24 30  1  0     0  0
 24 32  1  0     0  0
 29 31  1  0     0  0
 30 31  2  0     0  0
 33 40  1  0     0  0
 34 42  1  0     0  0
 35 41  1  0     0  0
 37 42  1  0     0  0
 38 43  1  0     0  0
 39 44  1  0     0  0
 41 43  1  0     0  0
 41 44  1  0     0  0
M  END
> <standard_type>
pIC50

> <# Confs.>
25

> <canonical_smiles>
O=C(CC1=CC(NC2=NC=NC3=CC(OCCCN4CCC(CO)CC4)=C(OC)C=C23)=NN1)NC5=CC=CC(C(F)(F)F)=C5

> <standard_relation>
=

> <Publication_ID>
nan

> <predicted_activity_value>
7.886056647693163

> <actual_activity_value>
7.886056647693163

> <Compound>
9

> <standard_units>
nM

> hash
2551856031523063432

$$$$
8
XXILIB    08252103493D 0   0.00000     0.00000

 44 48  0     1  0            999 V2000
    8.7285    2.7175   -3.9707 F   0  0  0  0  0  1           0  0  0
   10.1295    4.3695   -3.7821 F   0  0  0  0  0  1           0  0  0
    8.1832    4.6990   -4.6816 F   0  0  0  0  0  1           0  0  0
   -2.9808    0.2177   -4.7450 O   0  0  0  0  0  2           0  0  0
   -0.3851    0.1979   -4.9479 O   0  0  0  0  0  2           0  0  0
    5.8999    3.7367    2.3591 O   0  0  0  0  0  2           0  0  0
   -9.2844   -5.5840   -5.1915 O   0  0  0  0  0  2           0  0  0
    3.1052    1.5029    2.6048 N   0  0  0  0  0  3           0  0  0
    1.9248    1.1852    2.0528 N   0  0  0  0  0  3           0  0  0
   -0.6508    0.0000    1.1900 N   0  0  0  0  0  3           0  0  0
   -2.7546    0.0492    0.0438 N   0  0  0  0  0  3           0  0  0
    1.4153    0.0000   -0.0000 N   0  0  0  0  0  3           0  0  0
    6.6311    2.5644    0.4894 N   0  0  0  0  0  3           0  0  0
   -7.2580   -0.8327   -5.4020 N   0  0  1  0  0  3           0  0  0
   -2.2850    0.1676   -3.5703 C   0  0  0  0  0  4           0  0  0
   -0.8910    0.1559   -3.6794 C   0  0  0  0  0  4           0  0  0
   -1.9895    0.0157    1.1439 C   0  0  0  0  0  4           0  0  0
    2.2541    0.5347    0.9262 C   0  0  0  0  0  4           0  0  0
    0.0000    0.0000    0.0000 C   0  0  0  0  0  4           0  0  0
   -2.1156    0.0764   -1.1331 C   0  0  0  0  0  4           0  0  0
    4.1890    1.0995    1.8779 C   0  0  0  0  0  4           0  0  0
    7.1528    3.6282   -0.2711 C   0  0  0  0  0  4           0  0  0
   -0.7109    0.0605   -1.2272 C   0  0  0  0  0  4           0  0  0
    8.2457    4.3553   -2.3216 C   0  0  0  0  0  4           0  0  0
   -2.8741    0.1264   -2.3003 C   0  0  0  0  0  4           0  0  0
   -0.1162    0.1093   -2.5146 C   0  0  0  0  0  4           0  0  0
    3.6648    0.4537    0.7812 C   0  0  0  0  0  4           0  0  0
    7.7068    3.3363   -1.5246 C   0  0  0  0  0  4           0  0  0
    7.1315    4.9509    0.1835 C   0  0  0  0  0  4           0  0  0
    8.2074    5.6749   -1.8588 C   0  0  0  0  0  4           0  0  0
    7.6577    5.9697   -0.6111 C   0  0  0  0  0  4           0  0  0
    8.8126    4.0424   -3.6677 C   0  0  1  0  0  4           0  0  0
    6.0522    2.6834    1.7409 C   0  0  0  0  0  4           0  0  0
   -4.4030    0.2291   -4.6179 C   0  0  0  0  0  4           0  0  0
   -9.6764   -4.3358   -4.6349 C   0  0  0  0  0  4           0  0  0
    1.0376    0.1851   -5.0366 C   0  0  0  0  0  4           0  0  0
   -6.5599    0.3035   -6.0083 C   0  0  0  0  0  4           0  0  0
   -8.7197   -0.6742   -5.4779 C   0  0  0  0  0  4           0  0  0
   -6.8399   -2.0866   -6.0480 C   0  0  0  0  0  4           0  0  0
    5.5866    1.3597    2.3022 C   0  0  0  0  0  4           0  0  0
   -9.0212   -3.1866   -5.3876 C   0  0  1  0  0  4           0  0  0
   -5.0249    0.2862   -6.0076 C   0  0  0  0  0  4           0  0  0
   -9.4393   -1.8383   -4.7930 C   0  0  0  0  0  4           0  0  0
   -7.4905   -3.2995   -5.3796 C   0  0  0  0  0  4           0  0  0
  1 32  1  0     0  0
  2 32  1  0     0  0
  3 32  1  0     0  0
  4 15  1  0     0  0
  4 34  1  0     0  0
  5 16  1  0     0  0
  5 36  1  0     0  0
  6 33  2  0     0  0
  7 35  1  0     0  0
  8  9  1  0     0  0
  8 21  1  0     0  0
  9 18  2  0     0  0
 10 17  1  0     0  0
 10 19  2  0     0  0
 11 17  2  0     0  0
 11 20  1  0     0  0
 12 18  1  0     0  0
 12 19  1  0     0  0
 13 22  1  0     0  0
 13 33  1  0     0  0
 14 37  1  0     0  0
 14 38  1  0     0  0
 14 39  1  0     0  0
 15 16  2  0     0  0
 15 25  1  0     0  0
 16 26  1  0     0  0
 18 27  1  0     0  0
 19 23  1  0     0  0
 20 23  1  0     0  0
 20 25  2  0     0  0
 21 27  2  0     0  0
 21 40  1  0     0  0
 22 28  1  0     0  0
 22 29  2  0     0  0
 23 26  2  0     0  0
 24 28  2  0     0  0
 24 30  1  0     0  0
 24 32  1  0     0  0
 29 31  1  0     0  0
 30 31  2  0     0  0
 33 40  1  0     0  0
 34 42  1  0     0  0
 35 41  1  0     0  0
 37 42  1  0     0  0
 38 43  1  0     0  0
 39 44  1  0     0  0
 41 43  1  0     0  0
 41 44  1  0     0  0
M  END
> <standard_type>
pIC50

> <# Confs.>
25

> <canonical_smiles>
O=C(CC1=CC(NC2=NC=NC3=CC(OCCCN4CCC(CO)CC4)=C(OC)C=C23)=NN1)NC5=CC=CC(C(F)(F)F)=C5

> <standard_relation>
=

> <Publication_ID>
nan

> <predicted_activity_value>
7.886056647693163

> <actual_activity_value>
7.886056647693163

> <Compound>
9

> <standard_units>
nM

> hash
2551856031523063432

$$$$
8
XXILIB    08252103493D 0   0.00000     0.00000

 44 48  0     1  0            999 V2000
    8.7285    4.7975    0.3681 F   0  0  0  0  0  1           0  0  0
   10.1295    5.4602    1.8930 F   0  0  0  0  0  1           0  0  0
    8.1832    6.4038    1.7286 F   0  0  0  0  0  1           0  0  0
   -2.9808    0.2177   -4.7450 O   0  0  0  0  0  2           0  0  0
   -0.3851    0.1979   -4.9479 O   0  0  0  0  0  2           0  0  0
    5.8999   -0.1746    4.4156 O   0  0  0  0  0  2           0  0  0
   -9.2844   -5.5840   -5.1915 O   0  0  0  0  0  2           0  0  0
    3.1052   -1.5044    2.6039 N   0  0  0  0  0  3           0  0  0
    1.9248   -1.1852    2.0528 N   0  0  0  0  0  3           0  0  0
   -0.6508    0.0000    1.1900 N   0  0  0  0  0  3           0  0  0
   -2.7546    0.0492    0.0438 N   0  0  0  0  0  3           0  0  0
    1.4153    0.0000    0.0000 N   0  0  0  0  0  3           0  0  0
    6.6311    0.8584    2.4655 N   0  0  0  0  0  3           0  0  0
   -7.2580   -0.8327   -5.4020 N   0  0  1  0  0  3           0  0  0
   -2.2850    0.1676   -3.5703 C   0  0  0  0  0  4           0  0  0
   -0.8910    0.1559   -3.6794 C   0  0  0  0  0  4           0  0  0
   -1.9895    0.0157    1.1439 C   0  0  0  0  0  4           0  0  0
    2.2541   -0.5347    0.9262 C   0  0  0  0  0  4           0  0  0
    0.0000    0.0000    0.0000 C   0  0  0  0  0  4           0  0  0
   -2.1156    0.0764   -1.1331 C   0  0  0  0  0  4           0  0  0
    4.1890   -1.0766    1.8911 C   0  0  0  0  0  4           0  0  0
    7.1528    2.0488    3.0066 C   0  0  0  0  0  4           0  0  0
   -0.7109    0.0605   -1.2272 C   0  0  0  0  0  4           0  0  0
    8.2457    4.1882    2.6109 C   0  0  0  0  0  4           0  0  0
   -2.8741    0.1264   -2.3003 C   0  0  0  0  0  4           0  0  0
   -0.1162    0.1093   -2.5146 C   0  0  0  0  0  4           0  0  0
    3.6648   -0.4497    0.7835 C   0  0  0  0  0  4           0  0  0
    7.7068    2.9885    2.1270 C   0  0  0  0  0  4           0  0  0
    7.1315    2.3166    4.3794 C   0  0  0  0  0  4           0  0  0
    8.2074    4.4472    3.9852 C   0  0  0  0  0  4           0  0  0
    7.6577    3.5141    4.8644 C   0  0  0  0  0  4           0  0  0
    8.8126    5.1975    1.6669 C   0  0  1  0  0  4           0  0  0
    6.0522   -0.1659    3.1943 C   0  0  0  0  0  4           0  0  0
   -4.4030    0.2291   -4.6179 C   0  0  0  0  0  4           0  0  0
   -9.6764   -4.3358   -4.6349 C   0  0  0  0  0  4           0  0  0
    1.0376    0.1851   -5.0366 C   0  0  0  0  0  4           0  0  0
   -6.5599    0.3035   -6.0083 C   0  0  0  0  0  4           0  0  0
   -8.7197   -0.6742   -5.4779 C   0  0  0  0  0  4           0  0  0
   -6.8399   -2.0866   -6.0480 C   0  0  0  0  0  4           0  0  0
    5.5866   -1.3140    2.3286 C   0  0  0  0  0  4           0  0  0
   -9.0212   -3.1866   -5.3876 C   0  0  1  0  0  4           0  0  0
   -5.0249    0.2862   -6.0076 C   0  0  0  0  0  4           0  0  0
   -9.4393   -1.8383   -4.7930 C   0  0  0  0  0  4           0  0  0
   -7.4905   -3.2995   -5.3796 C   0  0  0  0  0  4           0  0  0
  1 32  1  0     0  0
  2 32  1  0     0  0
  3 32  1  0     0  0
  4 15  1  0     0  0
  4 34  1  0     0  0
  5 16  1  0     0  0
  5 36  1  0     0  0
  6 33  2  0     0  0
  7 35  1  0     0  0
  8  9  1  0     0  0
  8 21  1  0     0  0
  9 18  2  0     0  0
 10 17  1  0     0  0
 10 19  2  0     0  0
 11 17  2  0     0  0
 11 20  1  0     0  0
 12 18  1  0     0  0
 12 19  1  0     0  0
 13 22  1  0     0  0
 13 33  1  0     0  0
 14 37  1  0     0  0
 14 38  1  0     0  0
 14 39  1  0     0  0
 15 16  2  0     0  0
 15 25  1  0     0  0
 16 26  1  0     0  0
 18 27  1  0     0  0
 19 23  1  0     0  0
 20 23  1  0     0  0
 20 25  2  0     0  0
 21 27  2  0     0  0
 21 40  1  0     0  0
 22 28  1  0     0  0
 22 29  2  0     0  0
 23 26  2  0     0  0
 24 28  2  0     0  0
 24 30  1  0     0  0
 24 32  1  0     0  0
 29 31  1  0     0  0
 30 31  2  0     0  0
 33 40  1  0     0  0
 34 42  1  0     0  0
 35 41  1  0     0  0
 37 42  1  0     0  0
 38 43  1  0     0  0
 39 44  1  0     0  0
 41 43  1  0     0  0
 41 44  1  0     0  0
M  END
> <standard_type>
pIC50

> <# Confs.>
25

> <canonical_smiles>
O=C(CC1=CC(NC2=NC=NC3=CC(OCCCN4CCC(CO)CC4)=C(OC)C=C23)=NN1)NC5=CC=CC(C(F)(F)F)=C5

> <standard_relation>
=

> <Publication_ID>
nan

> <predicted_activity_value>
7.886056647693163

> <actual_activity_value>
7.886056647693163

> <Compound>
9

> <standard_units>
nM

> hash
2551856031523063432

$$$$
8
XXILIB    08252103493D 0   0.00000     0.00000

 44 48  0     1  0            999 V2000
    6.5295    4.0313    6.9766 F   0  0  0  0  0  1           0  0  0
    7.6330    3.3433    8.7192 F   0  0  0  0  0  1           0  0  0
    5.4840    3.6148    8.8373 F   0  0  0  0  0  1           0  0  0
   -2.9808    0.2177   -4.7450 O   0  0  0  0  0  2           0  0  0
   -0.3851    0.1979   -4.9479 O   0  0  0  0  0  2           0  0  0
    5.5061   -2.4252    4.4524 O   0  0  0  0  0  2           0  0  0
   -7.9799    6.9180   -5.2617 O   0  0  0  0  0  2           0  0  0
    3.1052   -1.5044    2.6039 N   0  0  0  0  0  3           0  0  0
    1.9248   -1.1852    2.0528 N   0  0  0  0  0  3           0  0  0
   -0.6508    0.0000    1.1900 N   0  0  0  0  0  3           0  0  0
   -2.7546    0.0492    0.0438 N   0  0  0  0  0  3           0  0  0
    1.4153    0.0000    0.0000 N   0  0  0  0  0  3           0  0  0
    5.8538   -0.1268    4.4139 N   0  0  0  0  0  3           0  0  0
   -4.9669    2.8416   -6.2764 N   0  0  1  0  0  3           0  0  0
   -2.2850    0.1676   -3.5703 C   0  0  0  0  0  4           0  0  0
   -0.8910    0.1559   -3.6794 C   0  0  0  0  0  4           0  0  0
   -1.9895    0.0157    1.1439 C   0  0  0  0  0  4           0  0  0
    2.2541   -0.5347    0.9262 C   0  0  0  0  0  4           0  0  0
    0.0000    0.0000    0.0000 C   0  0  0  0  0  4           0  0  0
   -2.1156    0.0764   -1.1331 C   0  0  0  0  0  4           0  0  0
    4.1890   -1.0766    1.8911 C   0  0  0  0  0  4           0  0  0
    5.9525    0.1234    5.7958 C   0  0  0  0  0  4           0  0  0
   -0.7109    0.0605   -1.2272 C   0  0  0  0  0  4           0  0  0
    6.2762    1.7493    7.5790 C   0  0  0  0  0  4           0  0  0
   -2.8741    0.1264   -2.3003 C   0  0  0  0  0  4           0  0  0
   -0.1162    0.1093   -2.5146 C   0  0  0  0  0  4           0  0  0
    3.6648   -0.4497    0.7835 C   0  0  0  0  0  4           0  0  0
    6.1643    1.4433    6.2159 C   0  0  0  0  0  4           0  0  0
    5.8443   -0.8955    6.7481 C   0  0  0  0  0  4           0  0  0
    6.1548    0.7216    8.5204 C   0  0  0  0  0  4           0  0  0
    5.9449   -0.5939    8.1064 C   0  0  0  0  0  4           0  0  0
    6.4771    3.1613    8.0228 C   0  0  1  0  0  4           0  0  0
    5.6465   -1.3681    3.8378 C   0  0  0  0  0  4           0  0  0
   -4.4030    0.2291   -4.6179 C   0  0  0  0  0  4           0  0  0
   -6.5956    6.7834   -5.5568 C   0  0  0  0  0  4           0  0  0
    1.0376    0.1851   -5.0366 C   0  0  0  0  0  4           0  0  0
   -4.6283    1.5251   -6.8225 C   0  0  0  0  0  4           0  0  0
   -4.5247    3.9278   -7.1663 C   0  0  0  0  0  4           0  0  0
   -6.4149    2.9307   -6.0321 C   0  0  0  0  0  4           0  0  0
    5.5866   -1.3140    2.3286 C   0  0  0  0  0  4           0  0  0
   -6.3229    5.4511   -6.2403 C   0  0  1  0  0  4           0  0  0
   -5.0249    0.2862   -6.0076 C   0  0  0  0  0  4           0  0  0
   -4.8328    5.2994   -6.5613 C   0  0  0  0  0  4           0  0  0
   -6.7874    4.2655   -5.3834 C   0  0  0  0  0  4           0  0  0
  1 32  1  0     0  0
  2 32  1  0     0  0
  3 32  1  0     0  0
  4 15  1  0     0  0
  4 34  1  0     0  0
  5 16  1  0     0  0
  5 36  1  0     0  0
  6 33  2  0     0  0
  7 35  1  0     0  0
  8  9  1  0     0  0
  8 21  1  0     0  0
  9 18  2  0     0  0
 10 17  1  0     0  0
 10 19  2  0     0  0
 11 17  2  0     0  0
 11 20  1  0     0  0
 12 18  1  0     0  0
 12 19  1  0     0  0
 13 22  1  0     0  0
 13 33  1  0     0  0
 14 37  1  0     0  0
 14 38  1  0     0  0
 14 39  1  0     0  0
 15 16  2  0     0  0
 15 25  1  0     0  0
 16 26  1  0     0  0
 18 27  1  0     0  0
 19 23  1  0     0  0
 20 23  1  0     0  0
 20 25  2  0     0  0
 21 27  2  0     0  0
 21 40  1  0     0  0
 22 28  1  0     0  0
 22 29  2  0     0  0
 23 26  2  0     0  0
 24 28  2  0     0  0
 24 30  1  0     0  0
 24 32  1  0     0  0
 29 31  1  0     0  0
 30 31  2  0     0  0
 33 40  1  0     0  0
 34 42  1  0     0  0
 35 41  1  0     0  0
 37 42  1  0     0  0
 38 43  1  0     0  0
 39 44  1  0     0  0
 41 43  1  0     0  0
 41 44  1  0     0  0
M  END
> <standard_type>
pIC50

> <# Confs.>
25

> <canonical_smiles>
O=C(CC1=CC(NC2=NC=NC3=CC(OCCCN4CCC(CO)CC4)=C(OC)C=C23)=NN1)NC5=CC=CC(C(F)(F)F)=C5

> <standard_relation>
=

> <Publication_ID>
nan

> <predicted_activity_value>
7.886056647693163

> <actual_activity_value>
7.886056647693163

> <Compound>
9

> <standard_units>
nM

> hash
2551856031523063432

$$$$
8
XXILIB    08252103493D 0   0.00000     0.00000

 44 48  0     1  0            999 V2000
    6.5295    4.0313    6.9766 F   0  0  0  0  0  1           0  0  0
    7.6330    3.3433    8.7192 F   0  0  0  0  0  1           0  0  0
    5.4840    3.6148    8.8373 F   0  0  0  0  0  1           0  0  0
   -2.9808    0.2177   -4.7450 O   0  0  0  0  0  2           0  0  0
   -0.3851    0.1979   -4.9479 O   0  0  0  0  0  2           0  0  0
    5.5061   -2.4252    4.4524 O   0  0  0  0  0  2           0  0  0
   -2.0788   -8.1446   -5.0983 O   0  0  0  0  0  2           0  0  0
    3.1052   -1.5044    2.6039 N   0  0  0  0  0  3           0  0  0
    1.9248   -1.1852    2.0528 N   0  0  0  0  0  3           0  0  0
   -0.6508    0.0000    1.1900 N   0  0  0  0  0  3           0  0  0
   -2.7546    0.0492    0.0438 N   0  0  0  0  0  3           0  0  0
    1.4153    0.0000    0.0000 N   0  0  0  0  0  3           0  0  0
    5.8538   -0.1268    4.4139 N   0  0  0  0  0  3           0  0  0
   -3.3857   -3.2049   -5.8833 N   0  0  1  0  0  3           0  0  0
   -2.2850    0.1676   -3.5703 C   0  0  0  0  0  4           0  0  0
   -0.8910    0.1559   -3.6794 C   0  0  0  0  0  4           0  0  0
   -1.9895    0.0157    1.1439 C   0  0  0  0  0  4           0  0  0
    2.2541   -0.5347    0.9262 C   0  0  0  0  0  4           0  0  0
    0.0000    0.0000    0.0000 C   0  0  0  0  0  4           0  0  0
   -2.1156    0.0764   -1.1331 C   0  0  0  0  0  4           0  0  0
    4.1890   -1.0766    1.8911 C   0  0  0  0  0  4           0  0  0
    5.9525    0.1234    5.7958 C   0  0  0  0  0  4           0  0  0
   -0.7109    0.0605   -1.2272 C   0  0  0  0  0  4           0  0  0
    6.2762    1.7493    7.5790 C   0  0  0  0  0  4           0  0  0
   -2.8741    0.1264   -2.3003 C   0  0  0  0  0  4           0  0  0
   -0.1162    0.1093   -2.5146 C   0  0  0  0  0  4           0  0  0
    3.6648   -0.4497    0.7835 C   0  0  0  0  0  4           0  0  0
    6.1643    1.4433    6.2159 C   0  0  0  0  0  4           0  0  0
    5.8443   -0.8955    6.7481 C   0  0  0  0  0  4           0  0  0
    6.1548    0.7216    8.5204 C   0  0  0  0  0  4           0  0  0
    5.9449   -0.5939    8.1064 C   0  0  0  0  0  4           0  0  0
    6.4771    3.1613    8.0228 C   0  0  1  0  0  4           0  0  0
    5.6465   -1.3681    3.8378 C   0  0  0  0  0  4           0  0  0
   -4.2617   -0.4131   -4.7290 C   0  0  0  0  0  4           0  0  0
   -3.1163   -7.3209   -4.5818 C   0  0  0  0  0  4           0  0  0
    1.0376    0.1851   -5.0366 C   0  0  0  0  0  4           0  0  0
   -3.5626   -1.9682   -6.6484 C   0  0  0  0  0  4           0  0  0
   -4.6422   -3.9654   -5.7839 C   0  0  0  0  0  4           0  0  0
   -2.3295   -4.0290   -6.4913 C   0  0  0  0  0  4           0  0  0
    5.5866   -1.3140    2.3286 C   0  0  0  0  0  4           0  0  0
   -3.3437   -6.1188   -5.4872 C   0  0  1  0  0  4           0  0  0
   -4.5735   -0.9385   -6.1248 C   0  0  0  0  0  4           0  0  0
   -4.4606   -5.2268   -4.9365 C   0  0  0  0  0  4           0  0  0
   -2.0645   -5.2897   -5.6656 C   0  0  0  0  0  4           0  0  0
  1 32  1  0     0  0
  2 32  1  0     0  0
  3 32  1  0     0  0
  4 15  1  0     0  0
  4 34  1  0     0  0
  5 16  1  0     0  0
  5 36  1  0     0  0
  6 33  2  0     0  0
  7 35  1  0     0  0
  8  9  1  0     0  0
  8 21  1  0     0  0
  9 18  2  0     0  0
 10 17  1  0     0  0
 10 19  2  0     0  0
 11 17  2  0     0  0
 11 20  1  0     0  0
 12 18  1  0     0  0
 12 19  1  0     0  0
 13 22  1  0     0  0
 13 33  1  0     0  0
 14 37  1  0     0  0
 14 38  1  0     0  0
 14 39  1  0     0  0
 15 16  2  0     0  0
 15 25  1  0     0  0
 16 26  1  0     0  0
 18 27  1  0     0  0
 19 23  1  0     0  0
 20 23  1  0     0  0
 20 25  2  0     0  0
 21 27  2  0     0  0
 21 40  1  0     0  0
 22 28  1  0     0  0
 22 29  2  0     0  0
 23 26  2  0     0  0
 24 28  2  0     0  0
 24 30  1  0     0  0
 24 32  1  0     0  0
 29 31  1  0     0  0
 30 31  2  0     0  0
 33 40  1  0     0  0
 34 42  1  0     0  0
 35 41  1  0     0  0
 37 42  1  0     0  0
 38 43  1  0     0  0
 39 44  1  0     0  0
 41 43  1  0     0  0
 41 44  1  0     0  0
M  END
> <standard_type>
pIC50

> <# Confs.>
25

> <canonical_smiles>
O=C(CC1=CC(NC2=NC=NC3=CC(OCCCN4CCC(CO)CC4)=C(OC)C=C23)=NN1)NC5=CC=CC(C(F)(F)F)=C5

> <standard_relation>
=

> <Publication_ID>
nan

> <predicted_activity_value>
7.886056647693163

> <actual_activity_value>
7.886056647693163

> <Compound>
9

> <standard_units>
nM

> hash
2551856031523063432

$$$$
8
XXILIB    08252103493D 0   0.00000     0.00000

 44 48  0     1  0            999 V2000
    9.0271   -2.5401   -3.8134 F   0  0  0  0  0  1           0  0  0
    8.4802   -4.4832   -4.6212 F   0  0  0  0  0  1           0  0  0
   10.3793   -4.2302   -3.6037 F   0  0  0  0  0  1           0  0  0
   -2.9808    0.2177   -4.7450 O   0  0  0  0  0  2           0  0  0
   -0.3851    0.1979   -4.9479 O   0  0  0  0  0  2           0  0  0
    5.9427   -3.6852    2.3737 O   0  0  0  0  0  2           0  0  0
   -9.2844   -5.5840   -5.1915 O   0  0  0  0  0  2           0  0  0
    3.1052   -1.5044    2.6039 N   0  0  0  0  0  3           0  0  0
    1.9248   -1.1852    2.0528 N   0  0  0  0  0  3           0  0  0
   -0.6508    0.0000    1.1900 N   0  0  0  0  0  3           0  0  0
   -2.7546    0.0492    0.0438 N   0  0  0  0  0  3           0  0  0
    1.4153   -0.0000   -0.0000 N   0  0  0  0  0  3           0  0  0
    6.7009   -2.4830    0.5340 N   0  0  0  0  0  3           0  0  0
   -7.2580   -0.8327   -5.4020 N   0  0  1  0  0  3           0  0  0
   -2.2850    0.1676   -3.5703 C   0  0  0  0  0  4           0  0  0
   -0.8910    0.1559   -3.6794 C   0  0  0  0  0  4           0  0  0
   -1.9895    0.0157    1.1439 C   0  0  0  0  0  4           0  0  0
    2.2541   -0.5347    0.9262 C   0  0  0  0  0  4           0  0  0
    0.0000    0.0000    0.0000 C   0  0  0  0  0  4           0  0  0
   -2.1156    0.0764   -1.1331 C   0  0  0  0  0  4           0  0  0
    4.1890   -1.0766    1.8911 C   0  0  0  0  0  4           0  0  0
    7.2568   -3.5310   -0.2241 C   0  0  0  0  0  4           0  0  0
   -0.7109    0.0605   -1.2272 C   0  0  0  0  0  4           0  0  0
    8.4128   -4.2201   -2.2531 C   0  0  0  0  0  4           0  0  0
   -2.8741    0.1264   -2.3003 C   0  0  0  0  0  4           0  0  0
   -0.1162    0.1093   -2.5146 C   0  0  0  0  0  4           0  0  0
    3.6648   -0.4497    0.7835 C   0  0  0  0  0  4           0  0  0
    7.8492   -3.2160   -1.4543 C   0  0  0  0  0  4           0  0  0
    7.2360   -4.8599    0.2123 C   0  0  0  0  0  4           0  0  0
    8.3946   -5.5431   -1.7986 C   0  0  0  0  0  4           0  0  0
    7.8051   -5.8612   -0.5750 C   0  0  0  0  0  4           0  0  0
    9.0651   -3.8758   -3.5520 C   0  0  1  0  0  4           0  0  0
    6.0822   -2.6253    1.7639 C   0  0  0  0  0  4           0  0  0
   -4.4030    0.2291   -4.6179 C   0  0  0  0  0  4           0  0  0
   -9.6764   -4.3358   -4.6349 C   0  0  0  0  0  4           0  0  0
    1.0376    0.1851   -5.0366 C   0  0  0  0  0  4           0  0  0
   -6.5599    0.3035   -6.0083 C   0  0  0  0  0  4           0  0  0
   -8.7197   -0.6742   -5.4779 C   0  0  0  0  0  4           0  0  0
   -6.8399   -2.0866   -6.0480 C   0  0  0  0  0  4           0  0  0
    5.5866   -1.3140    2.3286 C   0  0  0  0  0  4           0  0  0
   -9.0212   -3.1866   -5.3876 C   0  0  1  0  0  4           0  0  0
   -5.0249    0.2862   -6.0076 C   0  0  0  0  0  4           0  0  0
   -9.4393   -1.8383   -4.7930 C   0  0  0  0  0  4           0  0  0
   -7.4905   -3.2995   -5.3796 C   0  0  0  0  0  4           0  0  0
  1 32  1  0     0  0
  2 32  1  0     0  0
  3 32  1  0     0  0
  4 15  1  0     0  0
  4 34  1  0     0  0
  5 16  1  0     0  0
  5 36  1  0     0  0
  6 33  2  0     0  0
  7 35  1  0     0  0
  8  9  1  0     0  0
  8 21  1  0     0  0
  9 18  2  0     0  0
 10 17  1  0     0  0
 10 19  2  0     0  0
 11 17  2  0     0  0
 11 20  1  0     0  0
 12 18  1  0     0  0
 12 19  1  0     0  0
 13 22  1  0     0  0
 13 33  1  0     0  0
 14 37  1  0     0  0
 14 38  1  0     0  0
 14 39  1  0     0  0
 15 16  2  0     0  0
 15 25  1  0     0  0
 16 26  1  0     0  0
 18 27  1  0     0  0
 19 23  1  0     0  0
 20 23  1  0     0  0
 20 25  2  0     0  0
 21 27  2  0     0  0
 21 40  1  0     0  0
 22 28  1  0     0  0
 22 29  2  0     0  0
 23 26  2  0     0  0
 24 28  2  0     0  0
 24 30  1  0     0  0
 24 32  1  0     0  0
 29 31  1  0     0  0
 30 31  2  0     0  0
 33 40  1  0     0  0
 34 42  1  0     0  0
 35 41  1  0     0  0
 37 42  1  0     0  0
 38 43  1  0     0  0
 39 44  1  0     0  0
 41 43  1  0     0  0
 41 44  1  0     0  0
M  END
> <standard_type>
pIC50

> <# Confs.>
25

> <canonical_smiles>
O=C(CC1=CC(NC2=NC=NC3=CC(OCCCN4CCC(CO)CC4)=C(OC)C=C23)=NN1)NC5=CC=CC(C(F)(F)F)=C5

> <standard_relation>
=

> <Publication_ID>
nan

> <predicted_activity_value>
7.886056647693163

> <actual_activity_value>
7.886056647693163

> <Compound>
9

> <standard_units>
nM

> hash
2551856031523063432

$$$$
8
XXILIB    08252103493D 0   0.00000     0.00000

 44 48  0     1  0            999 V2000
    9.0271   -4.5725    0.2931 F   0  0  0  0  0  1           0  0  0
    8.4802   -6.2437    1.5720 F   0  0  0  0  0  1           0  0  0
   10.3793   -5.2360    1.8616 F   0  0  0  0  0  1           0  0  0
   -2.9808    0.2177   -4.7450 O   0  0  0  0  0  2           0  0  0
   -0.3851    0.1979   -4.9479 O   0  0  0  0  0  2           0  0  0
    5.9427    0.2131    4.3784 O   0  0  0  0  0  2           0  0  0
  -11.1034    4.6607   -4.2411 O   0  0  0  0  0  2           0  0  0
    3.1052    1.5029    2.6048 N   0  0  0  0  0  3           0  0  0
    1.9248    1.1852    2.0528 N   0  0  0  0  0  3           0  0  0
   -0.6508    0.0000    1.1900 N   0  0  0  0  0  3           0  0  0
   -2.7546    0.0492    0.0438 N   0  0  0  0  0  3           0  0  0
    1.4153   -0.0000    0.0000 N   0  0  0  0  0  3           0  0  0
    6.7009   -0.7790    2.4173 N   0  0  0  0  0  3           0  0  0
   -7.2329    1.4084   -5.3211 N   0  0  1  0  0  3           0  0  0
   -2.2850    0.1676   -3.5703 C   0  0  0  0  0  4           0  0  0
   -0.8910    0.1559   -3.6794 C   0  0  0  0  0  4           0  0  0
   -1.9895    0.0157    1.1439 C   0  0  0  0  0  4           0  0  0
    2.2541    0.5347    0.9262 C   0  0  0  0  0  4           0  0  0
    0.0000    0.0000    0.0000 C   0  0  0  0  0  4           0  0  0
   -2.1156    0.0764   -1.1331 C   0  0  0  0  0  4           0  0  0
    4.1890    1.0995    1.8779 C   0  0  0  0  0  4           0  0  0
    7.2568   -1.9595    2.9459 C   0  0  0  0  0  4           0  0  0
   -0.7109    0.0605   -1.2272 C   0  0  0  0  0  4           0  0  0
    8.4128   -4.0613    2.5282 C   0  0  0  0  0  4           0  0  0
   -2.8741    0.1264   -2.3003 C   0  0  0  0  0  4           0  0  0
   -0.1162    0.1093   -2.5146 C   0  0  0  0  0  4           0  0  0
    3.6648    0.4537    0.7812 C   0  0  0  0  0  4           0  0  0
    7.8492   -2.8674    2.0580 C   0  0  0  0  0  4           0  0  0
    7.2360   -2.2461    4.3149 C   0  0  0  0  0  4           0  0  0
    8.3946   -4.3292    3.9012 C   0  0  0  0  0  4           0  0  0
    7.8051   -3.4285    4.7884 C   0  0  0  0  0  4           0  0  0
    9.0651   -5.0140    1.5806 C   0  0  1  0  0  4           0  0  0
    6.0822    0.2149    3.1555 C   0  0  0  0  0  4           0  0  0
   -4.4030    0.2291   -4.6179 C   0  0  0  0  0  4           0  0  0
   -9.6897    4.8096   -4.2703 C   0  0  0  0  0  4           0  0  0
    1.0376    0.1851   -5.0366 C   0  0  0  0  0  4           0  0  0
   -6.5599    0.3035   -6.0083 C   0  0  0  0  0  4           0  0  0
   -6.8667    2.7110   -5.9011 C   0  0  0  0  0  4           0  0  0
   -8.6909    1.2161   -5.3617 C   0  0  0  0  0  4           0  0  0
    5.5866    1.3597    2.3022 C   0  0  0  0  0  4           0  0  0
   -9.0543    3.7074   -5.1058 C   0  0  1  0  0  4           0  0  0
   -5.0249    0.2862   -6.0076 C   0  0  0  0  0  4           0  0  0
   -7.5308    3.8618   -5.1416 C   0  0  0  0  0  4           0  0  0
   -9.4175    2.3122   -4.5794 C   0  0  0  0  0  4           0  0  0
  1 32  1  0     0  0
  2 32  1  0     0  0
  3 32  1  0     0  0
  4 15  1  0     0  0
  4 34  1  0     0  0
  5 16  1  0     0  0
  5 36  1  0     0  0
  6 33  2  0     0  0
  7 35  1  0     0  0
  8  9  1  0     0  0
  8 21  1  0     0  0
  9 18  2  0     0  0
 10 17  1  0     0  0
 10 19  2  0     0  0
 11 17  2  0     0  0
 11 20  1  0     0  0
 12 18  1  0     0  0
 12 19  1  0     0  0
 13 22  1  0     0  0
 13 33  1  0     0  0
 14 37  1  0     0  0
 14 38  1  0     0  0
 14 39  1  0     0  0
 15 16  2  0     0  0
 15 25  1  0     0  0
 16 26  1  0     0  0
 18 27  1  0     0  0
 19 23  1  0     0  0
 20 23  1  0     0  0
 20 25  2  0     0  0
 21 27  2  0     0  0
 21 40  1  0     0  0
 22 28  1  0     0  0
 22 29  2  0     0  0
 23 26  2  0     0  0
 24 28  2  0     0  0
 24 30  1  0     0  0
 24 32  1  0     0  0
 29 31  1  0     0  0
 30 31  2  0     0  0
 33 40  1  0     0  0
 34 42  1  0     0  0
 35 41  1  0     0  0
 37 42  1  0     0  0
 38 43  1  0     0  0
 39 44  1  0     0  0
 41 43  1  0     0  0
 41 44  1  0     0  0
M  END
> <standard_type>
pIC50

> <# Confs.>
25

> <canonical_smiles>
O=C(CC1=CC(NC2=NC=NC3=CC(OCCCN4CCC(CO)CC4)=C(OC)C=C23)=NN1)NC5=CC=CC(C(F)(F)F)=C5

> <standard_relation>
=

> <Publication_ID>
nan

> <predicted_activity_value>
7.886056647693163

> <actual_activity_value>
7.886056647693163

> <Compound>
9

> <standard_units>
nM

> hash
2551856031523063432

$$$$
8
XXILIB    08252103493D 0   0.00000     0.00000

 44 48  0     1  0            999 V2000
    6.5295    8.0576   -0.0029 F   0  0  0  0  0  1           0  0  0
    7.6330    9.2227    1.4642 F   0  0  0  0  0  1           0  0  0
    5.4840    9.4608    1.2881 F   0  0  0  0  0  1           0  0  0
   -2.9808    0.2177   -4.7450 O   0  0  0  0  0  2           0  0  0
   -0.3851    0.1979   -4.9479 O   0  0  0  0  0  2           0  0  0
    5.5061    2.6433    4.3265 O   0  0  0  0  0  2           0  0  0
  -11.1560   -0.2657  -10.6239 O   0  0  0  0  0  2           0  0  0
    3.1052    1.5029    2.6048 N   0  0  0  0  0  3           0  0  0
    1.9248    1.1852    2.0528 N   0  0  0  0  0  3           0  0  0
   -0.6508    0.0000    1.1900 N   0  0  0  0  0  3           0  0  0
   -2.7546    0.0492    0.0438 N   0  0  0  0  0  3           0  0  0
    1.4153    0.0000   -0.0000 N   0  0  0  0  0  3           0  0  0
    5.8538    3.7591    2.3168 N   0  0  0  0  0  3           0  0  0
   -7.2438    0.3578   -7.3026 N   0  0  1  0  0  3           0  0  0
   -2.2850    0.1676   -3.5703 C   0  0  0  0  0  4           0  0  0
   -0.8910    0.1559   -3.6794 C   0  0  0  0  0  4           0  0  0
   -1.9895    0.0157    1.1439 C   0  0  0  0  0  4           0  0  0
    2.2541    0.5347    0.9262 C   0  0  0  0  0  4           0  0  0
    0.0000    0.0000    0.0000 C   0  0  0  0  0  4           0  0  0
   -2.1156    0.0764   -1.1331 C   0  0  0  0  0  4           0  0  0
    4.1890    1.0995    1.8779 C   0  0  0  0  0  4           0  0  0
    5.9525    5.0810    2.7911 C   0  0  0  0  0  4           0  0  0
   -0.7109    0.0605   -1.2272 C   0  0  0  0  0  4           0  0  0
    6.2762    7.4382    2.2746 C   0  0  0  0  0  4           0  0  0
   -2.8741    0.1264   -2.3003 C   0  0  0  0  0  4           0  0  0
   -0.1162    0.1093   -2.5146 C   0  0  0  0  0  4           0  0  0
    3.6648    0.4537    0.7812 C   0  0  0  0  0  4           0  0  0
    6.1643    6.1048    1.8580 C   0  0  0  0  0  4           0  0  0
    5.8443    5.3962    4.1496 C   0  0  0  0  0  4           0  0  0
    6.1548    7.7397    3.6353 C   0  0  0  0  0  4           0  0  0
    5.9449    6.7234    4.5675 C   0  0  0  0  0  4           0  0  0
    6.4771    8.5286    1.2736 C   0  0  1  0  0  4           0  0  0
    5.6465    2.6396    3.1037 C   0  0  0  0  0  4           0  0  0
   -4.4030    0.2291   -4.6179 C   0  0  0  0  0  4           0  0  0
   -9.7453   -0.3898  -10.7511 C   0  0  0  0  0  4           0  0  0
    1.0376    0.1851   -5.0366 C   0  0  0  0  0  4           0  0  0
   -6.5599    0.3035   -6.0083 C   0  0  0  0  0  4           0  0  0
   -6.9052   -0.8018   -8.1440 C   0  0  0  0  0  4           0  0  0
   -8.6988    0.4439   -7.1025 C   0  0  0  0  0  4           0  0  0
    5.5866    1.3597    2.3022 C   0  0  0  0  0  4           0  0  0
   -9.1005   -0.5734   -9.3846 C   0  0  1  0  0  4           0  0  0
   -5.0249    0.2862   -6.0076 C   0  0  0  0  0  4           0  0  0
   -7.5802   -0.7078   -9.5142 C   0  0  0  0  0  4           0  0  0
   -9.4352    0.5861   -8.4363 C   0  0  0  0  0  4           0  0  0
  1 32  1  0     0  0
  2 32  1  0     0  0
  3 32  1  0     0  0
  4 15  1  0     0  0
  4 34  1  0     0  0
  5 16  1  0     0  0
  5 36  1  0     0  0
  6 33  2  0     0  0
  7 35  1  0     0  0
  8  9  1  0     0  0
  8 21  1  0     0  0
  9 18  2  0     0  0
 10 17  1  0     0  0
 10 19  2  0     0  0
 11 17  2  0     0  0
 11 20  1  0     0  0
 12 18  1  0     0  0
 12 19  1  0     0  0
 13 22  1  0     0  0
 13 33  1  0     0  0
 14 37  1  0     0  0
 14 38  1  0     0  0
 14 39  1  0     0  0
 15 16  2  0     0  0
 15 25  1  0     0  0
 16 26  1  0     0  0
 18 27  1  0     0  0
 19 23  1  0     0  0
 20 23  1  0     0  0
 20 25  2  0     0  0
 21 27  2  0     0  0
 21 40  1  0     0  0
 22 28  1  0     0  0
 22 29  2  0     0  0
 23 26  2  0     0  0
 24 28  2  0     0  0
 24 30  1  0     0  0
 24 32  1  0     0  0
 29 31  1  0     0  0
 30 31  2  0     0  0
 33 40  1  0     0  0
 34 42  1  0     0  0
 35 41  1  0     0  0
 37 42  1  0     0  0
 38 43  1  0     0  0
 39 44  1  0     0  0
 41 43  1  0     0  0
 41 44  1  0     0  0
M  END
> <standard_type>
pIC50

> <# Confs.>
25

> <canonical_smiles>
O=C(CC1=CC(NC2=NC=NC3=CC(OCCCN4CCC(CO)CC4)=C(OC)C=C23)=NN1)NC5=CC=CC(C(F)(F)F)=C5

> <standard_relation>
=

> <Publication_ID>
nan

> <predicted_activity_value>
7.886056647693163

> <actual_activity_value>
7.886056647693163

> <Compound>
9

> <standard_units>
nM

> hash
2551856031523063432

$$$$
8
XXILIB    08252103493D 0   0.00000     0.00000

 44 48  0     1  0            999 V2000
    8.7285    4.7975    0.3681 F   0  0  0  0  0  1           0  0  0
   10.1295    5.4602    1.8930 F   0  0  0  0  0  1           0  0  0
    8.1832    6.4038    1.7286 F   0  0  0  0  0  1           0  0  0
   -2.9808    0.2177   -4.7450 O   0  0  0  0  0  2           0  0  0
   -0.3851    0.1979   -4.9479 O   0  0  0  0  0  2           0  0  0
    5.8999   -0.1746    4.4156 O   0  0  0  0  0  2           0  0  0
  -11.1541   -3.2617   -6.5591 O   0  0  0  0  0  2           0  0  0
    3.1052   -1.5044    2.6039 N   0  0  0  0  0  3           0  0  0
    1.9248   -1.1852    2.0528 N   0  0  0  0  0  3           0  0  0
   -0.6508    0.0000    1.1900 N   0  0  0  0  0  3           0  0  0
   -2.7546    0.0492    0.0438 N   0  0  0  0  0  3           0  0  0
    1.4153    0.0000    0.0000 N   0  0  0  0  0  3           0  0  0
    6.6311    0.8584    2.4655 N   0  0  0  0  0  3           0  0  0
   -7.2580   -0.8327   -5.4020 N   0  0  1  0  0  3           0  0  0
   -2.2850    0.1676   -3.5703 C   0  0  0  0  0  4           0  0  0
   -0.8910    0.1559   -3.6794 C   0  0  0  0  0  4           0  0  0
   -1.9895    0.0157    1.1439 C   0  0  0  0  0  4           0  0  0
    2.2541   -0.5347    0.9262 C   0  0  0  0  0  4           0  0  0
    0.0000    0.0000    0.0000 C   0  0  0  0  0  4           0  0  0
   -2.1156    0.0764   -1.1331 C   0  0  0  0  0  4           0  0  0
    4.1890   -1.0766    1.8911 C   0  0  0  0  0  4           0  0  0
    7.1528    2.0488    3.0066 C   0  0  0  0  0  4           0  0  0
   -0.7109    0.0605   -1.2272 C   0  0  0  0  0  4           0  0  0
    8.2457    4.1882    2.6109 C   0  0  0  0  0  4           0  0  0
   -2.8741    0.1264   -2.3003 C   0  0  0  0  0  4           0  0  0
   -0.1162    0.1093   -2.5146 C   0  0  0  0  0  4           0  0  0
    3.6648   -0.4497    0.7835 C   0  0  0  0  0  4           0  0  0
    7.7068    2.9885    2.1270 C   0  0  0  0  0  4           0  0  0
    7.1315    2.3166    4.3794 C   0  0  0  0  0  4           0  0  0
    8.2074    4.4472    3.9852 C   0  0  0  0  0  4           0  0  0
    7.6577    3.5141    4.8644 C   0  0  0  0  0  4           0  0  0
    8.8126    5.1975    1.6669 C   0  0  1  0  0  4           0  0  0
    6.0522   -0.1659    3.1943 C   0  0  0  0  0  4           0  0  0
   -4.4030    0.2291   -4.6179 C   0  0  0  0  0  4           0  0  0
   -9.7426   -3.3855   -6.6764 C   0  0  0  0  0  4           0  0  0
    1.0376    0.1851   -5.0366 C   0  0  0  0  0  4           0  0  0
   -6.5599    0.3035   -6.0083 C   0  0  0  0  0  4           0  0  0
   -6.8992   -2.0790   -6.0964 C   0  0  0  0  0  4           0  0  0
   -8.7169   -0.6373   -5.3995 C   0  0  0  0  0  4           0  0  0
    5.5866   -1.3140    2.3286 C   0  0  0  0  0  4           0  0  0
   -9.0736   -3.1636   -5.3274 C   0  0  1  0  0  4           0  0  0
   -5.0249    0.2862   -6.0076 C   0  0  0  0  0  4           0  0  0
   -7.5491   -3.2917   -5.4255 C   0  0  0  0  0  4           0  0  0
   -9.4303   -1.8036   -4.7092 C   0  0  0  0  0  4           0  0  0
  1 32  1  0     0  0
  2 32  1  0     0  0
  3 32  1  0     0  0
  4 15  1  0     0  0
  4 34  1  0     0  0
  5 16  1  0     0  0
  5 36  1  0     0  0
  6 33  2  0     0  0
  7 35  1  0     0  0
  8  9  1  0     0  0
  8 21  1  0     0  0
  9 18  2  0     0  0
 10 17  1  0     0  0
 10 19  2  0     0  0
 11 17  2  0     0  0
 11 20  1  0     0  0
 12 18  1  0     0  0
 12 19  1  0     0  0
 13 22  1  0     0  0
 13 33  1  0     0  0
 14 37  1  0     0  0
 14 38  1  0     0  0
 14 39  1  0     0  0
 15 16  2  0     0  0
 15 25  1  0     0  0
 16 26  1  0     0  0
 18 27  1  0     0  0
 19 23  1  0     0  0
 20 23  1  0     0  0
 20 25  2  0     0  0
 21 27  2  0     0  0
 21 40  1  0     0  0
 22 28  1  0     0  0
 22 29  2  0     0  0
 23 26  2  0     0  0
 24 28  2  0     0  0
 24 30  1  0     0  0
 24 32  1  0     0  0
 29 31  1  0     0  0
 30 31  2  0     0  0
 33 40  1  0     0  0
 34 42  1  0     0  0
 35 41  1  0     0  0
 37 42  1  0     0  0
 38 43  1  0     0  0
 39 44  1  0     0  0
 41 43  1  0     0  0
 41 44  1  0     0  0
M  END
> <standard_type>
pIC50

> <# Confs.>
25

> <canonical_smiles>
O=C(CC1=CC(NC2=NC=NC3=CC(OCCCN4CCC(CO)CC4)=C(OC)C=C23)=NN1)NC5=CC=CC(C(F)(F)F)=C5

> <standard_relation>
=

> <Publication_ID>
nan

> <predicted_activity_value>
7.886056647693163

> <actual_activity_value>
7.886056647693163

> <Compound>
9

> <standard_units>
nM

> hash
2551856031523063432

$$$$
8
XXILIB    08252103493D 0   0.00000     0.00000

 44 48  0     1  0            999 V2000
    6.5295    8.0576   -0.0029 F   0  0  0  0  0  1           0  0  0
    7.6330    9.2227    1.4642 F   0  0  0  0  0  1           0  0  0
    5.4840    9.4608    1.2881 F   0  0  0  0  0  1           0  0  0
   -2.9808    0.2177   -4.7450 O   0  0  0  0  0  2           0  0  0
   -0.3851    0.1979   -4.9479 O   0  0  0  0  0  2           0  0  0
    5.5061    2.6433    4.3265 O   0  0  0  0  0  2           0  0  0
   -6.1316   -7.2689   -6.9562 O   0  0  0  0  0  2           0  0  0
    3.1052    1.5029    2.6048 N   0  0  0  0  0  3           0  0  0
    1.9248    1.1852    2.0528 N   0  0  0  0  0  3           0  0  0
   -0.6508    0.0000    1.1900 N   0  0  0  0  0  3           0  0  0
   -2.7546    0.0492    0.0438 N   0  0  0  0  0  3           0  0  0
    1.4153    0.0000   -0.0000 N   0  0  0  0  0  3           0  0  0
    5.8538    3.7591    2.3168 N   0  0  0  0  0  3           0  0  0
   -5.0239   -2.2438   -6.4598 N   0  0  1  0  0  3           0  0  0
   -2.2850    0.1676   -3.5703 C   0  0  0  0  0  4           0  0  0
   -0.8910    0.1559   -3.6794 C   0  0  0  0  0  4           0  0  0
   -1.9895    0.0157    1.1439 C   0  0  0  0  0  4           0  0  0
    2.2541    0.5347    0.9262 C   0  0  0  0  0  4           0  0  0
    0.0000   -0.0000    0.0000 C   0  0  0  0  0  4           0  0  0
   -2.1156    0.0764   -1.1331 C   0  0  0  0  0  4           0  0  0
    4.1890    1.0995    1.8779 C   0  0  0  0  0  4           0  0  0
    5.9525    5.0810    2.7911 C   0  0  0  0  0  4           0  0  0
   -0.7109    0.0605   -1.2272 C   0  0  0  0  0  4           0  0  0
    6.2762    7.4382    2.2746 C   0  0  0  0  0  4           0  0  0
   -2.8741    0.1264   -2.3003 C   0  0  0  0  0  4           0  0  0
   -0.1162    0.1093   -2.5146 C   0  0  0  0  0  4           0  0  0
    3.6648    0.4537    0.7812 C   0  0  0  0  0  4           0  0  0
    6.1643    6.1048    1.8580 C   0  0  0  0  0  4           0  0  0
    5.8443    5.3962    4.1496 C   0  0  0  0  0  4           0  0  0
    6.1548    7.7397    3.6353 C   0  0  0  0  0  4           0  0  0
    5.9449    6.7234    4.5675 C   0  0  0  0  0  4           0  0  0
    6.4771    8.5286    1.2736 C   0  0  1  0  0  4           0  0  0
    5.6465    2.6396    3.1037 C   0  0  0  0  0  4           0  0  0
   -4.4030    0.2291   -4.6179 C   0  0  0  0  0  4           0  0  0
   -6.6215   -6.2469   -6.0976 C   0  0  0  0  0  4           0  0  0
    1.0376    0.1851   -5.0366 C   0  0  0  0  0  4           0  0  0
   -4.6555   -0.8994   -6.9099 C   0  0  0  0  0  4           0  0  0
   -6.4795   -2.3768   -6.2834 C   0  0  0  0  0  4           0  0  0
   -4.5244   -3.2499   -7.4098 C   0  0  0  0  0  4           0  0  0
    5.5866    1.3597    2.3022 C   0  0  0  0  0  4           0  0  0
   -6.3240   -4.8726   -6.6802 C   0  0  1  0  0  4           0  0  0
   -5.0249    0.2862   -6.0076 C   0  0  0  0  0  4           0  0  0
   -6.8492   -3.7665   -5.7600 C   0  0  0  0  0  4           0  0  0
   -4.8221   -4.6696   -6.9228 C   0  0  0  0  0  4           0  0  0
  1 32  1  0     0  0
  2 32  1  0     0  0
  3 32  1  0     0  0
  4 15  1  0     0  0
  4 34  1  0     0  0
  5 16  1  0     0  0
  5 36  1  0     0  0
  6 33  2  0     0  0
  7 35  1  0     0  0
  8  9  1  0     0  0
  8 21  1  0     0  0
  9 18  2  0     0  0
 10 17  1  0     0  0
 10 19  2  0     0  0
 11 17  2  0     0  0
 11 20  1  0     0  0
 12 18  1  0     0  0
 12 19  1  0     0  0
 13 22  1  0     0  0
 13 33  1  0     0  0
 14 37  1  0     0  0
 14 38  1  0     0  0
 14 39  1  0     0  0
 15 16  2  0     0  0
 15 25  1  0     0  0
 16 26  1  0     0  0
 18 27  1  0     0  0
 19 23  1  0     0  0
 20 23  1  0     0  0
 20 25  2  0     0  0
 21 27  2  0     0  0
 21 40  1  0     0  0
 22 28  1  0     0  0
 22 29  2  0     0  0
 23 26  2  0     0  0
 24 28  2  0     0  0
 24 30  1  0     0  0
 24 32  1  0     0  0
 29 31  1  0     0  0
 30 31  2  0     0  0
 33 40  1  0     0  0
 34 42  1  0     0  0
 35 41  1  0     0  0
 37 42  1  0     0  0
 38 43  1  0     0  0
 39 44  1  0     0  0
 41 43  1  0     0  0
 41 44  1  0     0  0
M  END
> <standard_type>
pIC50

> <# Confs.>
25

> <canonical_smiles>
O=C(CC1=CC(NC2=NC=NC3=CC(OCCCN4CCC(CO)CC4)=C(OC)C=C23)=NN1)NC5=CC=CC(C(F)(F)F)=C5

> <standard_relation>
=

> <Publication_ID>
nan

> <predicted_activity_value>
7.886056647693163

> <actual_activity_value>
7.886056647693163

> <Compound>
9

> <standard_units>
nM

> hash
2551856031523063432

$$$$
8
XXILIB    08252103493D 0   0.00000     0.00000

 44 48  0     1  0            999 V2000
    9.0271   -2.5401   -3.8134 F   0  0  0  0  0  1           0  0  0
    8.4802   -4.4832   -4.6212 F   0  0  0  0  0  1           0  0  0
   10.3793   -4.2302   -3.6037 F   0  0  0  0  0  1           0  0  0
   -2.9808    0.2177   -4.7450 O   0  0  0  0  0  2           0  0  0
   -0.3851    0.1979   -4.9479 O   0  0  0  0  0  2           0  0  0
    5.9427   -3.6852    2.3737 O   0  0  0  0  0  2           0  0  0
  -11.1541   -3.2617   -6.5591 O   0  0  0  0  0  2           0  0  0
    3.1052   -1.5044    2.6039 N   0  0  0  0  0  3           0  0  0
    1.9248   -1.1852    2.0528 N   0  0  0  0  0  3           0  0  0
   -0.6508    0.0000    1.1900 N   0  0  0  0  0  3           0  0  0
   -2.7546    0.0492    0.0438 N   0  0  0  0  0  3           0  0  0
    1.4153   -0.0000   -0.0000 N   0  0  0  0  0  3           0  0  0
    6.7009   -2.4830    0.5340 N   0  0  0  0  0  3           0  0  0
   -7.2580   -0.8327   -5.4020 N   0  0  1  0  0  3           0  0  0
   -2.2850    0.1676   -3.5703 C   0  0  0  0  0  4           0  0  0
   -0.8910    0.1559   -3.6794 C   0  0  0  0  0  4           0  0  0
   -1.9895    0.0157    1.1439 C   0  0  0  0  0  4           0  0  0
    2.2541   -0.5347    0.9262 C   0  0  0  0  0  4           0  0  0
    0.0000    0.0000    0.0000 C   0  0  0  0  0  4           0  0  0
   -2.1156    0.0764   -1.1331 C   0  0  0  0  0  4           0  0  0
    4.1890   -1.0766    1.8911 C   0  0  0  0  0  4           0  0  0
    7.2568   -3.5310   -0.2241 C   0  0  0  0  0  4           0  0  0
   -0.7109    0.0605   -1.2272 C   0  0  0  0  0  4           0  0  0
    8.4128   -4.2201   -2.2531 C   0  0  0  0  0  4           0  0  0
   -2.8741    0.1264   -2.3003 C   0  0  0  0  0  4           0  0  0
   -0.1162    0.1093   -2.5146 C   0  0  0  0  0  4           0  0  0
    3.6648   -0.4497    0.7835 C   0  0  0  0  0  4           0  0  0
    7.8492   -3.2160   -1.4543 C   0  0  0  0  0  4           0  0  0
    7.2360   -4.8599    0.2123 C   0  0  0  0  0  4           0  0  0
    8.3946   -5.5431   -1.7986 C   0  0  0  0  0  4           0  0  0
    7.8051   -5.8612   -0.5750 C   0  0  0  0  0  4           0  0  0
    9.0651   -3.8758   -3.5520 C   0  0  1  0  0  4           0  0  0
    6.0822   -2.6253    1.7639 C   0  0  0  0  0  4           0  0  0
   -4.4030    0.2291   -4.6179 C   0  0  0  0  0  4           0  0  0
   -9.7426   -3.3855   -6.6764 C   0  0  0  0  0  4           0  0  0
    1.0376    0.1851   -5.0366 C   0  0  0  0  0  4           0  0  0
   -6.5599    0.3035   -6.0083 C   0  0  0  0  0  4           0  0  0
   -6.8992   -2.0790   -6.0964 C   0  0  0  0  0  4           0  0  0
   -8.7169   -0.6373   -5.3995 C   0  0  0  0  0  4           0  0  0
    5.5866   -1.3140    2.3286 C   0  0  0  0  0  4           0  0  0
   -9.0736   -3.1636   -5.3274 C   0  0  1  0  0  4           0  0  0
   -5.0249    0.2862   -6.0076 C   0  0  0  0  0  4           0  0  0
   -7.5491   -3.2917   -5.4255 C   0  0  0  0  0  4           0  0  0
   -9.4303   -1.8036   -4.7092 C   0  0  0  0  0  4           0  0  0
  1 32  1  0     0  0
  2 32  1  0     0  0
  3 32  1  0     0  0
  4 15  1  0     0  0
  4 34  1  0     0  0
  5 16  1  0     0  0
  5 36  1  0     0  0
  6 33  2  0     0  0
  7 35  1  0     0  0
  8  9  1  0     0  0
  8 21  1  0     0  0
  9 18  2  0     0  0
 10 17  1  0     0  0
 10 19  2  0     0  0
 11 17  2  0     0  0
 11 20  1  0     0  0
 12 18  1  0     0  0
 12 19  1  0     0  0
 13 22  1  0     0  0
 13 33  1  0     0  0
 14 37  1  0     0  0
 14 38  1  0     0  0
 14 39  1  0     0  0
 15 16  2  0     0  0
 15 25  1  0     0  0
 16 26  1  0     0  0
 18 27  1  0     0  0
 19 23  1  0     0  0
 20 23  1  0     0  0
 20 25  2  0     0  0
 21 27  2  0     0  0
 21 40  1  0     0  0
 22 28  1  0     0  0
 22 29  2  0     0  0
 23 26  2  0     0  0
 24 28  2  0     0  0
 24 30  1  0     0  0
 24 32  1  0     0  0
 29 31  1  0     0  0
 30 31  2  0     0  0
 33 40  1  0     0  0
 34 42  1  0     0  0
 35 41  1  0     0  0
 37 42  1  0     0  0
 38 43  1  0     0  0
 39 44  1  0     0  0
 41 43  1  0     0  0
 41 44  1  0     0  0
M  END
> <standard_type>
pIC50

> <# Confs.>
25

> <canonical_smiles>
O=C(CC1=CC(NC2=NC=NC3=CC(OCCCN4CCC(CO)CC4)=C(OC)C=C23)=NN1)NC5=CC=CC(C(F)(F)F)=C5

> <standard_relation>
=

> <Publication_ID>
nan

> <predicted_activity_value>
7.886056647693163

> <actual_activity_value>
7.886056647693163

> <Compound>
9

> <standard_units>
nM

> hash
2551856031523063432

$$$$
4
XXILIB    08252103493D 0   0.00000     0.00000

 42 45  0     1  0            999 V2000
   -9.7513    6.4501   -0.1634 F   0  0  0  0  0  1           0  0  0
   -8.8654    8.9830   -0.3610 F   0  0  0  0  0  1           0  0  0
    1.3663    0.0000    0.0000 O   0  0  0  0  0  2           0  0  0
   -0.2639    0.0061    2.4192 O   0  0  0  0  0  2           0  0  0
   -9.4868    4.3492    0.8677 O   0  0  0  0  0  2           0  0  0
    3.8089   -5.3239   -2.9208 O   0  0  0  0  0  2           0  0  0
   -8.1615    1.4634    0.4636 N   0  0  0  0  0  3           0  0  0
   -7.0027    1.1424   -0.1403 N   0  0  0  0  0  3           0  0  0
   -4.7418   -0.0038   -1.6757 N   0  0  0  0  0  3           0  0  0
   -2.5362    0.0737   -2.6131 N   0  0  0  0  0  3           0  0  0
   -5.0928   -0.1066    0.6806 N   0  0  0  0  0  3           0  0  0
   -8.1014    4.2548   -0.9972 N   0  0  0  0  0  3           0  0  0
    3.4225   -3.8963    0.5610 N   0  0  1  0  0  3           0  0  0
   -8.5275    6.6659   -0.6671 C   0  0  0  0  0  4           0  0  0
   -8.0769    7.9791   -0.7693 C   0  0  0  0  0  4           0  0  0
    0.0000    0.0000    0.0000 C   0  0  0  0  0  4           0  0  0
   -0.7791    0.0000    1.1539 C   0  0  0  0  0  4           0  0  0
   -3.8744    0.0569   -2.6953 C   0  0  0  0  0  4           0  0  0
   -6.3329    0.4399    0.7878 C   0  0  0  0  0  4           0  0  0
   -4.2136   -0.0675   -0.4284 C   0  0  0  0  0  4           0  0  0
   -2.0100    0.0319   -1.3826 C   0  0  0  0  0  4           0  0  0
   -8.2691    0.9886    1.7355 C   0  0  0  0  0  4           0  0  0
   -7.7159    5.6064   -1.0815 C   0  0  0  0  0  4           0  0  0
   -2.8104   -0.0323   -0.2230 C   0  0  0  0  0  4           0  0  0
   -6.8182    8.2629   -1.2864 C   0  0  0  0  0  4           0  0  0
   -0.6238    0.0488   -1.2495 C   0  0  0  0  0  4           0  0  0
   -2.1702   -0.0463    1.0418 C   0  0  0  0  0  4           0  0  0
   -7.0967    0.3162    1.9793 C   0  0  0  0  0  4           0  0  0
   -6.4481    5.8926   -1.6057 C   0  0  0  0  0  4           0  0  0
   -6.0029    7.2147   -1.7071 C   0  0  0  0  0  4           0  0  0
   -8.9554    3.7213   -0.0450 C   0  0  0  0  0  4           0  0  0
    1.9811   -1.1163    0.6445 C   0  0  0  0  0  4           0  0  0
    4.2780   -4.8830   -1.6533 C   0  0  0  0  0  4           0  0  0
   -0.0394    1.2968    2.9809 C   0  0  0  0  0  4           0  0  0
   -9.1506    2.2392   -0.2505 C   0  0  0  0  0  4           0  0  0
    3.1082   -4.3879   -0.7839 C   0  0  0  0  0  4           0  0  0
    4.0589   -4.8938    1.4184 C   0  0  0  0  0  4           0  0  0
    4.0789   -2.5859    0.5878 C   0  0  0  0  0  4           0  0  0
    3.2779   -6.1887    1.7066 C   0  0  1  0  0  4           0  0  0
    3.3202   -1.3958   -0.0267 C   0  0  0  0  0  4           0  0  0
    4.0564   -7.1432    2.6141 C   0  0  0  0  0  4           0  0  0
    1.8935   -5.9083    2.2948 C   0  0  0  0  0  4           0  0  0
  1 14  1  0     0  0
  2 15  1  0     0  0
  3 16  1  0     0  0
  3 32  1  0     0  0
  4 17  1  0     0  0
  4 34  1  0     0  0
  5 31  2  0     0  0
  6 33  1  0     0  0
  7  8  1  0     0  0
  7 22  1  0     0  0
  7 35  1  0     0  0
  8 19  2  0     0  0
  9 18  1  0     0  0
  9 20  2  0     0  0
 10 18  2  0     0  0
 10 21  1  0     0  0
 11 19  1  0     0  0
 11 20  1  0     0  0
 12 23  1  0     0  0
 12 31  1  0     0  0
 13 36  1  0     0  0
 13 37  1  0     0  0
 13 38  1  0     0  0
 14 15  1  0     0  0
 14 23  2  0     0  0
 15 25  2  0     0  0
 16 17  1  0     0  0
 16 26  2  0     0  0
 17 27  2  0     0  0
 19 28  1  0     0  0
 20 24  1  0     0  0
 21 24  2  0     0  0
 21 26  1  0     0  0
 22 28  2  0     0  0
 23 29  1  0     0  0
 24 27  1  0     0  0
 25 30  1  0     0  0
 29 30  2  0     0  0
 31 35  1  0     0  0
 32 40  1  0     0  0
 33 36  1  0     0  0
 37 39  1  0     0  0
 38 40  1  0     0  0
 39 41  1  0     0  0
 39 42  1  0     0  0
M  END
> <standard_type>
pIC50

> <# Confs.>
25

> <canonical_smiles>
O=C(CN(C=C1)N=C1NC2=NC=NC3=C2C=C(OC)C(OCCCN(CC(C)C)CCO)=C3)NC4=C(F)C(F)=CC=C4

> <standard_relation>
=

> <Publication_ID>
nan

> <predicted_activity_value>
8.031517051446064

> <actual_activity_value>
8.096910013008056

> <Compound>
5

> <standard_units>
nM

> hash
13470637940307672993

$$$$
4
XXILIB    08252103493D 0   0.00000     0.00000

 42 45  0     1  0            999 V2000
   -9.7513    6.4501   -0.1634 F   0  0  0  0  0  1           0  0  0
   -8.8654    8.9830   -0.3610 F   0  0  0  0  0  1           0  0  0
    1.3663    0.0000   -0.0000 O   0  0  0  0  0  2           0  0  0
   -0.2639    0.0061    2.4192 O   0  0  0  0  0  2           0  0  0
   -9.4868    4.3492    0.8677 O   0  0  0  0  0  2           0  0  0
    6.0491   -3.8387   -2.4854 O   0  0  0  0  0  2           0  0  0
   -8.1615    1.4634    0.4636 N   0  0  0  0  0  3           0  0  0
   -7.0027    1.1424   -0.1403 N   0  0  0  0  0  3           0  0  0
   -4.7418   -0.0038   -1.6757 N   0  0  0  0  0  3           0  0  0
   -2.5362    0.0737   -2.6131 N   0  0  0  0  0  3           0  0  0
   -5.0928   -0.1066    0.6806 N   0  0  0  0  0  3           0  0  0
   -8.1014    4.2548   -0.9972 N   0  0  0  0  0  3           0  0  0
    4.0483   -3.4693    0.7037 N   0  0  1  0  0  3           0  0  0
   -8.5275    6.6659   -0.6671 C   0  0  0  0  0  4           0  0  0
   -8.0769    7.9791   -0.7693 C   0  0  0  0  0  4           0  0  0
    0.0000    0.0000    0.0000 C   0  0  0  0  0  4           0  0  0
   -0.7791    0.0000    1.1539 C   0  0  0  0  0  4           0  0  0
   -3.8744    0.0569   -2.6953 C   0  0  0  0  0  4           0  0  0
   -6.3329    0.4399    0.7878 C   0  0  0  0  0  4           0  0  0
   -4.2136   -0.0675   -0.4284 C   0  0  0  0  0  4           0  0  0
   -2.0100    0.0319   -1.3826 C   0  0  0  0  0  4           0  0  0
   -8.2691    0.9886    1.7355 C   0  0  0  0  0  4           0  0  0
   -7.7159    5.6064   -1.0815 C   0  0  0  0  0  4           0  0  0
   -2.8104   -0.0323   -0.2230 C   0  0  0  0  0  4           0  0  0
   -6.8182    8.2629   -1.2864 C   0  0  0  0  0  4           0  0  0
   -0.6238    0.0488   -1.2495 C   0  0  0  0  0  4           0  0  0
   -2.1702   -0.0463    1.0418 C   0  0  0  0  0  4           0  0  0
   -7.0967    0.3162    1.9793 C   0  0  0  0  0  4           0  0  0
   -6.4481    5.8926   -1.6057 C   0  0  0  0  0  4           0  0  0
   -6.0029    7.2147   -1.7071 C   0  0  0  0  0  4           0  0  0
   -8.9554    3.7213   -0.0450 C   0  0  0  0  0  4           0  0  0
    1.9811   -1.1163    0.6445 C   0  0  0  0  0  4           0  0  0
    5.8853   -3.6687   -1.0834 C   0  0  0  0  0  4           0  0  0
   -0.0394    1.2968    2.9809 C   0  0  0  0  0  4           0  0  0
   -9.1506    2.2392   -0.2505 C   0  0  0  0  0  4           0  0  0
    4.3920   -3.6389   -0.7112 C   0  0  0  0  0  4           0  0  0
    4.5725   -4.5250    1.5674 C   0  0  0  0  0  4           0  0  0
    4.2685   -2.1156    1.2214 C   0  0  0  0  0  4           0  0  0
    4.1222   -5.9690    1.2817 C   0  0  1  0  0  4           0  0  0
    3.4946   -0.9632    0.5561 C   0  0  0  0  0  4           0  0  0
    4.7431   -6.9714    2.2566 C   0  0  0  0  0  4           0  0  0
    2.5983   -6.1076    1.2772 C   0  0  0  0  0  4           0  0  0
  1 14  1  0     0  0
  2 15  1  0     0  0
  3 16  1  0     0  0
  3 32  1  0     0  0
  4 17  1  0     0  0
  4 34  1  0     0  0
  5 31  2  0     0  0
  6 33  1  0     0  0
  7  8  1  0     0  0
  7 22  1  0     0  0
  7 35  1  0     0  0
  8 19  2  0     0  0
  9 18  1  0     0  0
  9 20  2  0     0  0
 10 18  2  0     0  0
 10 21  1  0     0  0
 11 19  1  0     0  0
 11 20  1  0     0  0
 12 23  1  0     0  0
 12 31  1  0     0  0
 13 36  1  0     0  0
 13 37  1  0     0  0
 13 38  1  0     0  0
 14 15  1  0     0  0
 14 23  2  0     0  0
 15 25  2  0     0  0
 16 17  1  0     0  0
 16 26  2  0     0  0
 17 27  2  0     0  0
 19 28  1  0     0  0
 20 24  1  0     0  0
 21 24  2  0     0  0
 21 26  1  0     0  0
 22 28  2  0     0  0
 23 29  1  0     0  0
 24 27  1  0     0  0
 25 30  1  0     0  0
 29 30  2  0     0  0
 31 35  1  0     0  0
 32 40  1  0     0  0
 33 36  1  0     0  0
 37 39  1  0     0  0
 38 40  1  0     0  0
 39 41  1  0     0  0
 39 42  1  0     0  0
M  END
> <standard_type>
pIC50

> <# Confs.>
25

> <canonical_smiles>
O=C(CN(C=C1)N=C1NC2=NC=NC3=C2C=C(OC)C(OCCCN(CC(C)C)CCO)=C3)NC4=C(F)C(F)=CC=C4

> <standard_relation>
=

> <Publication_ID>
nan

> <predicted_activity_value>
8.031517051446064

> <actual_activity_value>
8.096910013008056

> <Compound>
5

> <standard_units>
nM

> hash
13470637940307672993

$$$$
4
XXILIB    08252103493D 0   0.00000     0.00000

 42 45  0     1  0            999 V2000
   -9.7513    6.4501   -0.1634 F   0  0  0  0  0  1           0  0  0
   -8.8654    8.9830   -0.3610 F   0  0  0  0  0  1           0  0  0
    1.3663    0.0000   -0.0000 O   0  0  0  0  0  2           0  0  0
   -0.2639    0.0061    2.4192 O   0  0  0  0  0  2           0  0  0
   -9.4868    4.3492    0.8677 O   0  0  0  0  0  2           0  0  0
    7.3111   -2.1151    2.7300 O   0  0  0  0  0  2           0  0  0
   -8.1615    1.4634    0.4636 N   0  0  0  0  0  3           0  0  0
   -7.0027    1.1424   -0.1403 N   0  0  0  0  0  3           0  0  0
   -4.7418   -0.0038   -1.6757 N   0  0  0  0  0  3           0  0  0
   -2.5362    0.0737   -2.6131 N   0  0  0  0  0  3           0  0  0
   -5.0928   -0.1066    0.6806 N   0  0  0  0  0  3           0  0  0
   -8.1014    4.2548   -0.9972 N   0  0  0  0  0  3           0  0  0
    4.6982    0.2611    1.3748 N   0  0  1  0  0  3           0  0  0
   -8.5275    6.6659   -0.6671 C   0  0  0  0  0  4           0  0  0
   -8.0769    7.9791   -0.7693 C   0  0  0  0  0  4           0  0  0
    0.0000    0.0000    0.0000 C   0  0  0  0  0  4           0  0  0
   -0.7791    0.0000    1.1539 C   0  0  0  0  0  4           0  0  0
   -3.8744    0.0569   -2.6953 C   0  0  0  0  0  4           0  0  0
   -6.3329    0.4399    0.7878 C   0  0  0  0  0  4           0  0  0
   -4.2136   -0.0675   -0.4284 C   0  0  0  0  0  4           0  0  0
   -2.0100    0.0319   -1.3826 C   0  0  0  0  0  4           0  0  0
   -8.2691    0.9886    1.7355 C   0  0  0  0  0  4           0  0  0
   -7.7159    5.6064   -1.0815 C   0  0  0  0  0  4           0  0  0
   -2.8104   -0.0323   -0.2230 C   0  0  0  0  0  4           0  0  0
   -6.8182    8.2629   -1.2864 C   0  0  0  0  0  4           0  0  0
   -0.6238    0.0488   -1.2495 C   0  0  0  0  0  4           0  0  0
   -2.1702   -0.0463    1.0418 C   0  0  0  0  0  4           0  0  0
   -7.0967    0.3162    1.9793 C   0  0  0  0  0  4           0  0  0
   -6.4481    5.8926   -1.6057 C   0  0  0  0  0  4           0  0  0
   -6.0029    7.2147   -1.7071 C   0  0  0  0  0  4           0  0  0
   -8.9554    3.7213   -0.0450 C   0  0  0  0  0  4           0  0  0
    1.9811   -1.1163    0.6445 C   0  0  0  0  0  4           0  0  0
    6.8106   -1.1295    1.8360 C   0  0  0  0  0  4           0  0  0
   -0.0394    1.2968    2.9809 C   0  0  0  0  0  4           0  0  0
   -9.1506    2.2392   -0.2505 C   0  0  0  0  0  4           0  0  0
    5.3650   -0.7484    2.2027 C   0  0  0  0  0  4           0  0  0
    5.3774    1.5549    1.3633 C   0  0  0  0  0  4           0  0  0
    4.3023   -0.2127    0.0452 C   0  0  0  0  0  4           0  0  0
    5.5487    2.2821    2.7091 C   0  0  1  0  0  4           0  0  0
    3.3202   -1.3958   -0.0267 C   0  0  0  0  0  4           0  0  0
    6.2734    3.6206    2.5545 C   0  0  0  0  0  4           0  0  0
    4.2142    2.4816    3.4307 C   0  0  0  0  0  4           0  0  0
  1 14  1  0     0  0
  2 15  1  0     0  0
  3 16  1  0     0  0
  3 32  1  0     0  0
  4 17  1  0     0  0
  4 34  1  0     0  0
  5 31  2  0     0  0
  6 33  1  0     0  0
  7  8  1  0     0  0
  7 22  1  0     0  0
  7 35  1  0     0  0
  8 19  2  0     0  0
  9 18  1  0     0  0
  9 20  2  0     0  0
 10 18  2  0     0  0
 10 21  1  0     0  0
 11 19  1  0     0  0
 11 20  1  0     0  0
 12 23  1  0     0  0
 12 31  1  0     0  0
 13 36  1  0     0  0
 13 37  1  0     0  0
 13 38  1  0     0  0
 14 15  1  0     0  0
 14 23  2  0     0  0
 15 25  2  0     0  0
 16 17  1  0     0  0
 16 26  2  0     0  0
 17 27  2  0     0  0
 19 28  1  0     0  0
 20 24  1  0     0  0
 21 24  2  0     0  0
 21 26  1  0     0  0
 22 28  2  0     0  0
 23 29  1  0     0  0
 24 27  1  0     0  0
 25 30  1  0     0  0
 29 30  2  0     0  0
 31 35  1  0     0  0
 32 40  1  0     0  0
 33 36  1  0     0  0
 37 39  1  0     0  0
 38 40  1  0     0  0
 39 41  1  0     0  0
 39 42  1  0     0  0
M  END
> <standard_type>
pIC50

> <# Confs.>
25

> <canonical_smiles>
O=C(CN(C=C1)N=C1NC2=NC=NC3=C2C=C(OC)C(OCCCN(CC(C)C)CCO)=C3)NC4=C(F)C(F)=CC=C4

> <standard_relation>
=

> <Publication_ID>
nan

> <predicted_activity_value>
8.031517051446064

> <actual_activity_value>
8.096910013008056

> <Compound>
5

> <standard_units>
nM

> hash
13470637940307672993

$$$$
4
XXILIB    08252103493D 0   0.00000     0.00000

 42 45  0     1  0            999 V2000
   -9.7513    6.4501   -0.1634 F   0  0  0  0  0  1           0  0  0
   -8.8654    8.9830   -0.3610 F   0  0  0  0  0  1           0  0  0
    1.3663   -0.0000   -0.0000 O   0  0  0  0  0  2           0  0  0
   -0.2639    0.0061    2.4192 O   0  0  0  0  0  2           0  0  0
   -9.4868    4.3492    0.8677 O   0  0  0  0  0  2           0  0  0
    5.2200    0.0491   -4.3102 O   0  0  0  0  0  2           0  0  0
   -8.1615    1.4634    0.4636 N   0  0  0  0  0  3           0  0  0
   -7.0027    1.1424   -0.1403 N   0  0  0  0  0  3           0  0  0
   -4.7418   -0.0038   -1.6757 N   0  0  0  0  0  3           0  0  0
   -2.5362    0.0737   -2.6131 N   0  0  0  0  0  3           0  0  0
   -5.0928   -0.1066    0.6806 N   0  0  0  0  0  3           0  0  0
   -8.1014    4.2548   -0.9972 N   0  0  0  0  0  3           0  0  0
    5.6199   -0.3856   -0.5737 N   0  0  1  0  0  3           0  0  0
   -8.5275    6.6659   -0.6671 C   0  0  0  0  0  4           0  0  0
   -8.0769    7.9791   -0.7693 C   0  0  0  0  0  4           0  0  0
    0.0000    0.0000    0.0000 C   0  0  0  0  0  4           0  0  0
   -0.7791    0.0000    1.1539 C   0  0  0  0  0  4           0  0  0
   -3.8744    0.0569   -2.6953 C   0  0  0  0  0  4           0  0  0
   -6.3329    0.4399    0.7878 C   0  0  0  0  0  4           0  0  0
   -4.2136   -0.0675   -0.4284 C   0  0  0  0  0  4           0  0  0
   -2.0100    0.0319   -1.3826 C   0  0  0  0  0  4           0  0  0
   -8.2691    0.9886    1.7355 C   0  0  0  0  0  4           0  0  0
   -7.7159    5.6064   -1.0815 C   0  0  0  0  0  4           0  0  0
   -2.8104   -0.0323   -0.2230 C   0  0  0  0  0  4           0  0  0
   -6.8182    8.2629   -1.2864 C   0  0  0  0  0  4           0  0  0
   -0.6238    0.0488   -1.2495 C   0  0  0  0  0  4           0  0  0
   -2.1702   -0.0463    1.0418 C   0  0  0  0  0  4           0  0  0
   -7.0967    0.3162    1.9793 C   0  0  0  0  0  4           0  0  0
   -6.4481    5.8926   -1.6057 C   0  0  0  0  0  4           0  0  0
   -6.0029    7.2147   -1.7071 C   0  0  0  0  0  4           0  0  0
   -8.9554    3.7213   -0.0450 C   0  0  0  0  0  4           0  0  0
    1.9811   -1.1163    0.6445 C   0  0  0  0  0  4           0  0  0
    5.2147    0.4869   -2.9576 C   0  0  0  0  0  4           0  0  0
   -0.0394    1.2968    2.9809 C   0  0  0  0  0  4           0  0  0
   -9.1506    2.2392   -0.2505 C   0  0  0  0  0  4           0  0  0
    5.5802   -0.6707   -2.0111 C   0  0  0  0  0  4           0  0  0
    6.5862    0.6467   -0.2050 C   0  0  0  0  0  4           0  0  0
    4.3023   -0.2127    0.0452 C   0  0  0  0  0  4           0  0  0
    8.0667    0.3893   -0.5388 C   0  0  1  0  0  4           0  0  0
    3.3202   -1.3958   -0.0267 C   0  0  0  0  0  4           0  0  0
    8.9674    1.5457   -0.1003 C   0  0  0  0  0  4           0  0  0
    8.5703   -0.9291    0.0523 C   0  0  0  0  0  4           0  0  0
  1 14  1  0     0  0
  2 15  1  0     0  0
  3 16  1  0     0  0
  3 32  1  0     0  0
  4 17  1  0     0  0
  4 34  1  0     0  0
  5 31  2  0     0  0
  6 33  1  0     0  0
  7  8  1  0     0  0
  7 22  1  0     0  0
  7 35  1  0     0  0
  8 19  2  0     0  0
  9 18  1  0     0  0
  9 20  2  0     0  0
 10 18  2  0     0  0
 10 21  1  0     0  0
 11 19  1  0     0  0
 11 20  1  0     0  0
 12 23  1  0     0  0
 12 31  1  0     0  0
 13 36  1  0     0  0
 13 37  1  0     0  0
 13 38  1  0     0  0
 14 15  1  0     0  0
 14 23  2  0     0  0
 15 25  2  0     0  0
 16 17  1  0     0  0
 16 26  2  0     0  0
 17 27  2  0     0  0
 19 28  1  0     0  0
 20 24  1  0     0  0
 21 24  2  0     0  0
 21 26  1  0     0  0
 22 28  2  0     0  0
 23 29  1  0     0  0
 24 27  1  0     0  0
 25 30  1  0     0  0
 29 30  2  0     0  0
 31 35  1  0     0  0
 32 40  1  0     0  0
 33 36  1  0     0  0
 37 39  1  0     0  0
 38 40  1  0     0  0
 39 41  1  0     0  0
 39 42  1  0     0  0
M  END
> <standard_type>
pIC50

> <# Confs.>
25

> <canonical_smiles>
O=C(CN(C=C1)N=C1NC2=NC=NC3=C2C=C(OC)C(OCCCN(CC(C)C)CCO)=C3)NC4=C(F)C(F)=CC=C4

> <standard_relation>
=

> <Publication_ID>
nan

> <predicted_activity_value>
8.031517051446064

> <actual_activity_value>
8.096910013008056

> <Compound>
5

> <standard_units>
nM

> hash
13470637940307672993

$$$$
4
XXILIB    08252103493D 0   0.00000     0.00000

 42 45  0     1  0            999 V2000
   -9.7513    6.4501   -0.1634 F   0  0  0  0  0  1           0  0  0
   -8.8654    8.9830   -0.3610 F   0  0  0  0  0  1           0  0  0
    1.3663   -0.0000   -0.0000 O   0  0  0  0  0  2           0  0  0
   -0.2639    0.0061    2.4192 O   0  0  0  0  0  2           0  0  0
   -9.4868    4.3492    0.8677 O   0  0  0  0  0  2           0  0  0
    5.4773   -5.5591   -1.4613 O   0  0  0  0  0  2           0  0  0
   -8.1615    1.4634    0.4636 N   0  0  0  0  0  3           0  0  0
   -7.0027    1.1424   -0.1403 N   0  0  0  0  0  3           0  0  0
   -4.7418   -0.0038   -1.6757 N   0  0  0  0  0  3           0  0  0
   -2.5362    0.0737   -2.6131 N   0  0  0  0  0  3           0  0  0
   -5.0928   -0.1066    0.6806 N   0  0  0  0  0  3           0  0  0
   -8.1014    4.2548   -0.9972 N   0  0  0  0  0  3           0  0  0
    4.4355   -2.0113   -2.2596 N   0  0  1  0  0  3           0  0  0
   -8.5275    6.6659   -0.6671 C   0  0  0  0  0  4           0  0  0
   -8.0769    7.9791   -0.7693 C   0  0  0  0  0  4           0  0  0
    0.0000    0.0000    0.0000 C   0  0  0  0  0  4           0  0  0
   -0.7791    0.0000    1.1539 C   0  0  0  0  0  4           0  0  0
   -3.8744    0.0569   -2.6953 C   0  0  0  0  0  4           0  0  0
   -6.3329    0.4399    0.7878 C   0  0  0  0  0  4           0  0  0
   -4.2136   -0.0675   -0.4284 C   0  0  0  0  0  4           0  0  0
   -2.0100    0.0319   -1.3826 C   0  0  0  0  0  4           0  0  0
   -8.2691    0.9886    1.7355 C   0  0  0  0  0  4           0  0  0
   -7.7159    5.6064   -1.0815 C   0  0  0  0  0  4           0  0  0
   -2.8104   -0.0323   -0.2230 C   0  0  0  0  0  4           0  0  0
   -6.8182    8.2629   -1.2864 C   0  0  0  0  0  4           0  0  0
   -0.6238    0.0488   -1.2495 C   0  0  0  0  0  4           0  0  0
   -2.1702   -0.0463    1.0418 C   0  0  0  0  0  4           0  0  0
   -7.0967    0.3162    1.9793 C   0  0  0  0  0  4           0  0  0
   -6.4481    5.8926   -1.6057 C   0  0  0  0  0  4           0  0  0
   -6.0029    7.2147   -1.7071 C   0  0  0  0  0  4           0  0  0
   -8.9554    3.7213   -0.0450 C   0  0  0  0  0  4           0  0  0
    1.9811   -1.1163    0.6445 C   0  0  0  0  0  4           0  0  0
    4.6304   -4.5634   -2.0201 C   0  0  0  0  0  4           0  0  0
   -0.0394    1.2968    2.9809 C   0  0  0  0  0  4           0  0  0
   -9.1506    2.2392   -0.2505 C   0  0  0  0  0  4           0  0  0
    5.1933   -3.1569   -1.7475 C   0  0  0  0  0  4           0  0  0
    4.2728   -2.0151   -3.7118 C   0  0  0  0  0  4           0  0  0
    3.1991   -1.7270   -1.5251 C   0  0  0  0  0  4           0  0  0
    5.5488   -1.9871   -4.5722 C   0  0  1  0  0  4           0  0  0
    3.3202   -1.3958   -0.0267 C   0  0  0  0  0  4           0  0  0
    5.2362   -1.9942   -6.0699 C   0  0  0  0  0  4           0  0  0
    6.4529   -0.8026   -4.2246 C   0  0  0  0  0  4           0  0  0
  1 14  1  0     0  0
  2 15  1  0     0  0
  3 16  1  0     0  0
  3 32  1  0     0  0
  4 17  1  0     0  0
  4 34  1  0     0  0
  5 31  2  0     0  0
  6 33  1  0     0  0
  7  8  1  0     0  0
  7 22  1  0     0  0
  7 35  1  0     0  0
  8 19  2  0     0  0
  9 18  1  0     0  0
  9 20  2  0     0  0
 10 18  2  0     0  0
 10 21  1  0     0  0
 11 19  1  0     0  0
 11 20  1  0     0  0
 12 23  1  0     0  0
 12 31  1  0     0  0
 13 36  1  0     0  0
 13 37  1  0     0  0
 13 38  1  0     0  0
 14 15  1  0     0  0
 14 23  2  0     0  0
 15 25  2  0     0  0
 16 17  1  0     0  0
 16 26  2  0     0  0
 17 27  2  0     0  0
 19 28  1  0     0  0
 20 24  1  0     0  0
 21 24  2  0     0  0
 21 26  1  0     0  0
 22 28  2  0     0  0
 23 29  1  0     0  0
 24 27  1  0     0  0
 25 30  1  0     0  0
 29 30  2  0     0  0
 31 35  1  0     0  0
 32 40  1  0     0  0
 33 36  1  0     0  0
 37 39  1  0     0  0
 38 40  1  0     0  0
 39 41  1  0     0  0
 39 42  1  0     0  0
M  END
> <standard_type>
pIC50

> <# Confs.>
25

> <canonical_smiles>
O=C(CN(C=C1)N=C1NC2=NC=NC3=C2C=C(OC)C(OCCCN(CC(C)C)CCO)=C3)NC4=C(F)C(F)=CC=C4

> <standard_relation>
=

> <Publication_ID>
nan

> <predicted_activity_value>
8.031517051446064

> <actual_activity_value>
8.096910013008056

> <Compound>
5

> <standard_units>
nM

> hash
13470637940307672993

$$$$
4
XXILIB    08252103493D 0   0.00000     0.00000

 42 45  0     1  0            999 V2000
   -9.7513    6.4501   -0.1634 F   0  0  0  0  0  1           0  0  0
   -8.8654    8.9830   -0.3610 F   0  0  0  0  0  1           0  0  0
    1.3663   -0.0000   -0.0000 O   0  0  0  0  0  2           0  0  0
   -0.2639    0.0061    2.4192 O   0  0  0  0  0  2           0  0  0
   -9.4868    4.3492    0.8677 O   0  0  0  0  0  2           0  0  0
    5.9390    1.4486   -2.5401 O   0  0  0  0  0  2           0  0  0
   -8.1615    1.4634    0.4636 N   0  0  0  0  0  3           0  0  0
   -7.0027    1.1424   -0.1403 N   0  0  0  0  0  3           0  0  0
   -4.7418   -0.0038   -1.6757 N   0  0  0  0  0  3           0  0  0
   -2.5362    0.0737   -2.6131 N   0  0  0  0  0  3           0  0  0
   -5.0928   -0.1066    0.6806 N   0  0  0  0  0  3           0  0  0
   -8.1014    4.2548   -0.9972 N   0  0  0  0  0  3           0  0  0
    4.4355   -2.0113   -2.2596 N   0  0  1  0  0  3           0  0  0
   -8.5275    6.6659   -0.6671 C   0  0  0  0  0  4           0  0  0
   -8.0769    7.9791   -0.7693 C   0  0  0  0  0  4           0  0  0
    0.0000    0.0000    0.0000 C   0  0  0  0  0  4           0  0  0
   -0.7791    0.0000    1.1539 C   0  0  0  0  0  4           0  0  0
   -3.8744    0.0569   -2.6953 C   0  0  0  0  0  4           0  0  0
   -6.3329    0.4399    0.7878 C   0  0  0  0  0  4           0  0  0
   -4.2136   -0.0675   -0.4284 C   0  0  0  0  0  4           0  0  0
   -2.0100    0.0319   -1.3826 C   0  0  0  0  0  4           0  0  0
   -8.2691    0.9886    1.7355 C   0  0  0  0  0  4           0  0  0
   -7.7159    5.6064   -1.0815 C   0  0  0  0  0  4           0  0  0
   -2.8104   -0.0323   -0.2230 C   0  0  0  0  0  4           0  0  0
   -6.8182    8.2629   -1.2864 C   0  0  0  0  0  4           0  0  0
   -0.6238    0.0488   -1.2495 C   0  0  0  0  0  4           0  0  0
   -2.1702   -0.0463    1.0418 C   0  0  0  0  0  4           0  0  0
   -7.0967    0.3162    1.9793 C   0  0  0  0  0  4           0  0  0
   -6.4481    5.8926   -1.6057 C   0  0  0  0  0  4           0  0  0
   -6.0029    7.2147   -1.7071 C   0  0  0  0  0  4           0  0  0
   -8.9554    3.7213   -0.0450 C   0  0  0  0  0  4           0  0  0
    1.9811   -1.1163    0.6445 C   0  0  0  0  0  4           0  0  0
    4.8805    0.5004   -2.5791 C   0  0  0  0  0  4           0  0  0
   -0.0394    1.2968    2.9809 C   0  0  0  0  0  4           0  0  0
   -9.1506    2.2392   -0.2505 C   0  0  0  0  0  4           0  0  0
    5.4047   -0.9115   -2.2608 C   0  0  0  0  0  4           0  0  0
    5.0224   -3.3126   -1.9477 C   0  0  0  0  0  4           0  0  0
    3.1991   -1.7270   -1.5251 C   0  0  0  0  0  4           0  0  0
    6.1278   -3.8383   -2.8811 C   0  0  1  0  0  4           0  0  0
    3.3202   -1.3958   -0.0267 C   0  0  0  0  0  4           0  0  0
    6.6531   -5.2063   -2.4414 C   0  0  0  0  0  4           0  0  0
    5.6738   -3.8887   -4.3414 C   0  0  0  0  0  4           0  0  0
  1 14  1  0     0  0
  2 15  1  0     0  0
  3 16  1  0     0  0
  3 32  1  0     0  0
  4 17  1  0     0  0
  4 34  1  0     0  0
  5 31  2  0     0  0
  6 33  1  0     0  0
  7  8  1  0     0  0
  7 22  1  0     0  0
  7 35  1  0     0  0
  8 19  2  0     0  0
  9 18  1  0     0  0
  9 20  2  0     0  0
 10 18  2  0     0  0
 10 21  1  0     0  0
 11 19  1  0     0  0
 11 20  1  0     0  0
 12 23  1  0     0  0
 12 31  1  0     0  0
 13 36  1  0     0  0
 13 37  1  0     0  0
 13 38  1  0     0  0
 14 15  1  0     0  0
 14 23  2  0     0  0
 15 25  2  0     0  0
 16 17  1  0     0  0
 16 26  2  0     0  0
 17 27  2  0     0  0
 19 28  1  0     0  0
 20 24  1  0     0  0
 21 24  2  0     0  0
 21 26  1  0     0  0
 22 28  2  0     0  0
 23 29  1  0     0  0
 24 27  1  0     0  0
 25 30  1  0     0  0
 29 30  2  0     0  0
 31 35  1  0     0  0
 32 40  1  0     0  0
 33 36  1  0     0  0
 37 39  1  0     0  0
 38 40  1  0     0  0
 39 41  1  0     0  0
 39 42  1  0     0  0
M  END
> <standard_type>
pIC50

> <# Confs.>
25

> <canonical_smiles>
O=C(CN(C=C1)N=C1NC2=NC=NC3=C2C=C(OC)C(OCCCN(CC(C)C)CCO)=C3)NC4=C(F)C(F)=CC=C4

> <standard_relation>
=

> <Publication_ID>
nan

> <predicted_activity_value>
8.031517051446064

> <actual_activity_value>
8.096910013008056

> <Compound>
5

> <standard_units>
nM

> hash
13470637940307672993

$$$$
4
XXILIB    08252103493D 0   0.00000     0.00000

 42 45  0     1  0            999 V2000
   -9.7513    6.4501   -0.1634 F   0  0  0  0  0  1           0  0  0
   -8.8654    8.9830   -0.3610 F   0  0  0  0  0  1           0  0  0
    1.3663   -0.0000   -0.0000 O   0  0  0  0  0  2           0  0  0
   -0.2639    0.0061    2.4192 O   0  0  0  0  0  2           0  0  0
   -9.4868    4.3492    0.8677 O   0  0  0  0  0  2           0  0  0
    4.3318   -4.5262   -3.2584 O   0  0  0  0  0  2           0  0  0
   -8.1615    1.4634    0.4636 N   0  0  0  0  0  3           0  0  0
   -7.0027    1.1424   -0.1403 N   0  0  0  0  0  3           0  0  0
   -4.7418   -0.0038   -1.6757 N   0  0  0  0  0  3           0  0  0
   -2.5362    0.0737   -2.6131 N   0  0  0  0  0  3           0  0  0
   -5.0928   -0.1066    0.6806 N   0  0  0  0  0  3           0  0  0
   -8.1014    4.2548   -0.9972 N   0  0  0  0  0  3           0  0  0
    5.3801   -2.9334    0.0088 N   0  0  1  0  0  3           0  0  0
   -8.5275    6.6659   -0.6671 C   0  0  0  0  0  4           0  0  0
   -8.0769    7.9791   -0.7693 C   0  0  0  0  0  4           0  0  0
    0.0000    0.0000    0.0000 C   0  0  0  0  0  4           0  0  0
   -0.7791    0.0000    1.1539 C   0  0  0  0  0  4           0  0  0
   -3.8744    0.0569   -2.6953 C   0  0  0  0  0  4           0  0  0
   -6.3329    0.4399    0.7878 C   0  0  0  0  0  4           0  0  0
   -4.2136   -0.0675   -0.4284 C   0  0  0  0  0  4           0  0  0
   -2.0100    0.0319   -1.3826 C   0  0  0  0  0  4           0  0  0
   -8.2691    0.9886    1.7355 C   0  0  0  0  0  4           0  0  0
   -7.7159    5.6064   -1.0815 C   0  0  0  0  0  4           0  0  0
   -2.8104   -0.0323   -0.2230 C   0  0  0  0  0  4           0  0  0
   -6.8182    8.2629   -1.2864 C   0  0  0  0  0  4           0  0  0
   -0.6238    0.0488   -1.2495 C   0  0  0  0  0  4           0  0  0
   -2.1702   -0.0463    1.0418 C   0  0  0  0  0  4           0  0  0
   -7.0967    0.3162    1.9793 C   0  0  0  0  0  4           0  0  0
   -6.4481    5.8926   -1.6057 C   0  0  0  0  0  4           0  0  0
   -6.0029    7.2147   -1.7071 C   0  0  0  0  0  4           0  0  0
   -8.9554    3.7213   -0.0450 C   0  0  0  0  0  4           0  0  0
    1.9811   -1.1163    0.6445 C   0  0  0  0  0  4           0  0  0
    4.2423   -4.2821   -1.8607 C   0  0  0  0  0  4           0  0  0
   -0.0394    1.2968    2.9809 C   0  0  0  0  0  4           0  0  0
   -9.1506    2.2392   -0.2505 C   0  0  0  0  0  4           0  0  0
    5.3332   -3.2934   -1.4115 C   0  0  0  0  0  4           0  0  0
    6.4461   -1.9912    0.3423 C   0  0  0  0  0  4           0  0  0
    4.0789   -2.5859    0.5878 C   0  0  0  0  0  4           0  0  0
    7.8953   -2.4240    0.0561 C   0  0  1  0  0  4           0  0  0
    3.3202   -1.3958   -0.0267 C   0  0  0  0  0  4           0  0  0
    8.9084   -1.3478    0.4511 C   0  0  0  0  0  4           0  0  0
    8.2437   -3.7532    0.7292 C   0  0  0  0  0  4           0  0  0
  1 14  1  0     0  0
  2 15  1  0     0  0
  3 16  1  0     0  0
  3 32  1  0     0  0
  4 17  1  0     0  0
  4 34  1  0     0  0
  5 31  2  0     0  0
  6 33  1  0     0  0
  7  8  1  0     0  0
  7 22  1  0     0  0
  7 35  1  0     0  0
  8 19  2  0     0  0
  9 18  1  0     0  0
  9 20  2  0     0  0
 10 18  2  0     0  0
 10 21  1  0     0  0
 11 19  1  0     0  0
 11 20  1  0     0  0
 12 23  1  0     0  0
 12 31  1  0     0  0
 13 36  1  0     0  0
 13 37  1  0     0  0
 13 38  1  0     0  0
 14 15  1  0     0  0
 14 23  2  0     0  0
 15 25  2  0     0  0
 16 17  1  0     0  0
 16 26  2  0     0  0
 17 27  2  0     0  0
 19 28  1  0     0  0
 20 24  1  0     0  0
 21 24  2  0     0  0
 21 26  1  0     0  0
 22 28  2  0     0  0
 23 29  1  0     0  0
 24 27  1  0     0  0
 25 30  1  0     0  0
 29 30  2  0     0  0
 31 35  1  0     0  0
 32 40  1  0     0  0
 33 36  1  0     0  0
 37 39  1  0     0  0
 38 40  1  0     0  0
 39 41  1  0     0  0
 39 42  1  0     0  0
M  END
> <standard_type>
pIC50

> <# Confs.>
25

> <canonical_smiles>
O=C(CN(C=C1)N=C1NC2=NC=NC3=C2C=C(OC)C(OCCCN(CC(C)C)CCO)=C3)NC4=C(F)C(F)=CC=C4

> <standard_relation>
=

> <Publication_ID>
nan

> <predicted_activity_value>
8.031517051446064

> <actual_activity_value>
8.096910013008056

> <Compound>
5

> <standard_units>
nM

> hash
13470637940307672993

$$$$
4
XXILIB    08252103493D 0   0.00000     0.00000

 42 45  0     1  0            999 V2000
   -9.7513    6.4501   -0.1634 F   0  0  0  0  0  1           0  0  0
   -8.8654    8.9830   -0.3610 F   0  0  0  0  0  1           0  0  0
    1.3663    0.0000    0.0000 O   0  0  0  0  0  2           0  0  0
   -0.2639    0.0061    2.4192 O   0  0  0  0  0  2           0  0  0
   -9.4868    4.3492    0.8677 O   0  0  0  0  0  2           0  0  0
    7.9407   -0.4887    1.3416 O   0  0  0  0  0  2           0  0  0
   -8.1615    1.4634    0.4636 N   0  0  0  0  0  3           0  0  0
   -7.0027    1.1424   -0.1403 N   0  0  0  0  0  3           0  0  0
   -4.7418   -0.0038   -1.6757 N   0  0  0  0  0  3           0  0  0
   -2.5362    0.0737   -2.6131 N   0  0  0  0  0  3           0  0  0
   -5.0928   -0.1066    0.6806 N   0  0  0  0  0  3           0  0  0
   -8.1014    4.2548   -0.9972 N   0  0  0  0  0  3           0  0  0
    5.3801   -2.9334    0.0088 N   0  0  1  0  0  3           0  0  0
   -8.5275    6.6659   -0.6671 C   0  0  0  0  0  4           0  0  0
   -8.0769    7.9791   -0.7693 C   0  0  0  0  0  4           0  0  0
    0.0000    0.0000    0.0000 C   0  0  0  0  0  4           0  0  0
   -0.7791    0.0000    1.1539 C   0  0  0  0  0  4           0  0  0
   -3.8744    0.0569   -2.6953 C   0  0  0  0  0  4           0  0  0
   -6.3329    0.4399    0.7878 C   0  0  0  0  0  4           0  0  0
   -4.2136   -0.0675   -0.4284 C   0  0  0  0  0  4           0  0  0
   -2.0100    0.0319   -1.3826 C   0  0  0  0  0  4           0  0  0
   -8.2691    0.9886    1.7355 C   0  0  0  0  0  4           0  0  0
   -7.7159    5.6064   -1.0815 C   0  0  0  0  0  4           0  0  0
   -2.8104   -0.0323   -0.2230 C   0  0  0  0  0  4           0  0  0
   -6.8182    8.2629   -1.2864 C   0  0  0  0  0  4           0  0  0
   -0.6238    0.0488   -1.2495 C   0  0  0  0  0  4           0  0  0
   -2.1702   -0.0463    1.0418 C   0  0  0  0  0  4           0  0  0
   -7.0967    0.3162    1.9793 C   0  0  0  0  0  4           0  0  0
   -6.4481    5.8926   -1.6057 C   0  0  0  0  0  4           0  0  0
   -6.0029    7.2147   -1.7071 C   0  0  0  0  0  4           0  0  0
   -8.9554    3.7213   -0.0450 C   0  0  0  0  0  4           0  0  0
    1.9811   -1.1163    0.6445 C   0  0  0  0  0  4           0  0  0
    6.9981   -1.5476    1.4476 C   0  0  0  0  0  4           0  0  0
   -0.0394    1.2968    2.9809 C   0  0  0  0  0  4           0  0  0
   -9.1506    2.2392   -0.2505 C   0  0  0  0  0  4           0  0  0
    6.3771   -1.8607    0.0743 C   0  0  0  0  0  4           0  0  0
    5.8878   -4.2356    0.4350 C   0  0  0  0  0  4           0  0  0
    4.0789   -2.5859    0.5878 C   0  0  0  0  0  4           0  0  0
    7.0736   -4.8291   -0.3469 C   0  0  1  0  0  4           0  0  0
    3.3202   -1.3958   -0.0267 C   0  0  0  0  0  4           0  0  0
    7.5038   -6.1909    0.2018 C   0  0  0  0  0  4           0  0  0
    6.7838   -4.9286   -1.8460 C   0  0  0  0  0  4           0  0  0
  1 14  1  0     0  0
  2 15  1  0     0  0
  3 16  1  0     0  0
  3 32  1  0     0  0
  4 17  1  0     0  0
  4 34  1  0     0  0
  5 31  2  0     0  0
  6 33  1  0     0  0
  7  8  1  0     0  0
  7 22  1  0     0  0
  7 35  1  0     0  0
  8 19  2  0     0  0
  9 18  1  0     0  0
  9 20  2  0     0  0
 10 18  2  0     0  0
 10 21  1  0     0  0
 11 19  1  0     0  0
 11 20  1  0     0  0
 12 23  1  0     0  0
 12 31  1  0     0  0
 13 36  1  0     0  0
 13 37  1  0     0  0
 13 38  1  0     0  0
 14 15  1  0     0  0
 14 23  2  0     0  0
 15 25  2  0     0  0
 16 17  1  0     0  0
 16 26  2  0     0  0
 17 27  2  0     0  0
 19 28  1  0     0  0
 20 24  1  0     0  0
 21 24  2  0     0  0
 21 26  1  0     0  0
 22 28  2  0     0  0
 23 29  1  0     0  0
 24 27  1  0     0  0
 25 30  1  0     0  0
 29 30  2  0     0  0
 31 35  1  0     0  0
 32 40  1  0     0  0
 33 36  1  0     0  0
 37 39  1  0     0  0
 38 40  1  0     0  0
 39 41  1  0     0  0
 39 42  1  0     0  0
M  END
> <standard_type>
pIC50

> <# Confs.>
25

> <canonical_smiles>
O=C(CN(C=C1)N=C1NC2=NC=NC3=C2C=C(OC)C(OCCCN(CC(C)C)CCO)=C3)NC4=C(F)C(F)=CC=C4

> <standard_relation>
=

> <Publication_ID>
nan

> <predicted_activity_value>
8.031517051446064

> <actual_activity_value>
8.096910013008056

> <Compound>
5

> <standard_units>
nM

> hash
13470637940307672993

$$$$
4
XXILIB    08252103493D 0   0.00000     0.00000

 42 45  0     1  0            999 V2000
   -9.7513    6.4501   -0.1634 F   0  0  0  0  0  1           0  0  0
   -8.8654    8.9830   -0.3610 F   0  0  0  0  0  1           0  0  0
    1.3663    0.0000   -0.0000 O   0  0  0  0  0  2           0  0  0
   -0.2639    0.0061    2.4192 O   0  0  0  0  0  2           0  0  0
   -9.4868    4.3492    0.8677 O   0  0  0  0  0  2           0  0  0
    1.3634   -6.1984   -2.1026 O   0  0  0  0  0  2           0  0  0
   -8.1615    1.4634    0.4636 N   0  0  0  0  0  3           0  0  0
   -7.0027    1.1424   -0.1403 N   0  0  0  0  0  3           0  0  0
   -4.7418   -0.0038   -1.6757 N   0  0  0  0  0  3           0  0  0
   -2.5362    0.0737   -2.6131 N   0  0  0  0  0  3           0  0  0
   -5.0928   -0.1066    0.6806 N   0  0  0  0  0  3           0  0  0
   -8.1014    4.2548   -0.9972 N   0  0  0  0  0  3           0  0  0
    2.7284   -4.1557    0.7739 N   0  0  1  0  0  3           0  0  0
   -8.5275    6.6659   -0.6671 C   0  0  0  0  0  4           0  0  0
   -8.0769    7.9791   -0.7693 C   0  0  0  0  0  4           0  0  0
    0.0000    0.0000    0.0000 C   0  0  0  0  0  4           0  0  0
   -0.7791    0.0000    1.1539 C   0  0  0  0  0  4           0  0  0
   -3.8744    0.0569   -2.6953 C   0  0  0  0  0  4           0  0  0
   -6.3329    0.4399    0.7878 C   0  0  0  0  0  4           0  0  0
   -4.2136   -0.0675   -0.4284 C   0  0  0  0  0  4           0  0  0
   -2.0100    0.0319   -1.3826 C   0  0  0  0  0  4           0  0  0
   -8.2691    0.9886    1.7355 C   0  0  0  0  0  4           0  0  0
   -7.7159    5.6064   -1.0815 C   0  0  0  0  0  4           0  0  0
   -2.8104   -0.0323   -0.2230 C   0  0  0  0  0  4           0  0  0
   -6.8182    8.2629   -1.2864 C   0  0  0  0  0  4           0  0  0
   -0.6238    0.0488   -1.2495 C   0  0  0  0  0  4           0  0  0
   -2.1702   -0.0463    1.0418 C   0  0  0  0  0  4           0  0  0
   -7.0967    0.3162    1.9793 C   0  0  0  0  0  4           0  0  0
   -6.4481    5.8926   -1.6057 C   0  0  0  0  0  4           0  0  0
   -6.0029    7.2147   -1.7071 C   0  0  0  0  0  4           0  0  0
   -8.9554    3.7213   -0.0450 C   0  0  0  0  0  4           0  0  0
    1.9811   -1.1163    0.6445 C   0  0  0  0  0  4           0  0  0
    2.3893   -5.6945   -1.2573 C   0  0  0  0  0  4           0  0  0
   -0.0394    1.2968    2.9809 C   0  0  0  0  0  4           0  0  0
   -9.1506    2.2392   -0.2505 C   0  0  0  0  0  4           0  0  0
    1.7990   -4.7625   -0.1838 C   0  0  0  0  0  4           0  0  0
    3.4726   -5.1295    1.5695 C   0  0  0  0  0  4           0  0  0
    3.5610   -3.0867    0.2143 C   0  0  0  0  0  4           0  0  0
    2.6632   -6.0970    2.4518 C   0  0  1  0  0  4           0  0  0
    2.8438   -1.8565   -0.3702 C   0  0  0  0  0  4           0  0  0
    3.5627   -7.0601    3.2290 C   0  0  0  0  0  4           0  0  0
    1.7257   -5.3575    3.4086 C   0  0  0  0  0  4           0  0  0
  1 14  1  0     0  0
  2 15  1  0     0  0
  3 16  1  0     0  0
  3 32  1  0     0  0
  4 17  1  0     0  0
  4 34  1  0     0  0
  5 31  2  0     0  0
  6 33  1  0     0  0
  7  8  1  0     0  0
  7 22  1  0     0  0
  7 35  1  0     0  0
  8 19  2  0     0  0
  9 18  1  0     0  0
  9 20  2  0     0  0
 10 18  2  0     0  0
 10 21  1  0     0  0
 11 19  1  0     0  0
 11 20  1  0     0  0
 12 23  1  0     0  0
 12 31  1  0     0  0
 13 36  1  0     0  0
 13 37  1  0     0  0
 13 38  1  0     0  0
 14 15  1  0     0  0
 14 23  2  0     0  0
 15 25  2  0     0  0
 16 17  1  0     0  0
 16 26  2  0     0  0
 17 27  2  0     0  0
 19 28  1  0     0  0
 20 24  1  0     0  0
 21 24  2  0     0  0
 21 26  1  0     0  0
 22 28  2  0     0  0
 23 29  1  0     0  0
 24 27  1  0     0  0
 25 30  1  0     0  0
 29 30  2  0     0  0
 31 35  1  0     0  0
 32 40  1  0     0  0
 33 36  1  0     0  0
 37 39  1  0     0  0
 38 40  1  0     0  0
 39 41  1  0     0  0
 39 42  1  0     0  0
M  END
> <standard_type>
pIC50

> <# Confs.>
25

> <canonical_smiles>
O=C(CN(C=C1)N=C1NC2=NC=NC3=C2C=C(OC)C(OCCCN(CC(C)C)CCO)=C3)NC4=C(F)C(F)=CC=C4

> <standard_relation>
=

> <Publication_ID>
nan

> <predicted_activity_value>
8.031517051446064

> <actual_activity_value>
8.096910013008056

> <Compound>
5

> <standard_units>
nM

> hash
13470637940307672993

$$$$
4
XXILIB    08252103493D 0   0.00000     0.00000

 42 45  0     1  0            999 V2000
   -9.7513    6.4501   -0.1634 F   0  0  0  0  0  1           0  0  0
   -8.8654    8.9830   -0.3610 F   0  0  0  0  0  1           0  0  0
    1.3663    0.0000    0.0000 O   0  0  0  0  0  2           0  0  0
   -0.2639    0.0061    2.4192 O   0  0  0  0  0  2           0  0  0
   -9.4868    4.3492    0.8677 O   0  0  0  0  0  2           0  0  0
    6.3585    1.8738   -2.2356 O   0  0  0  0  0  2           0  0  0
   -8.1615    1.4634    0.4636 N   0  0  0  0  0  3           0  0  0
   -7.0027    1.1424   -0.1403 N   0  0  0  0  0  3           0  0  0
   -4.7418   -0.0038   -1.6757 N   0  0  0  0  0  3           0  0  0
   -2.5362    0.0737   -2.6131 N   0  0  0  0  0  3           0  0  0
   -5.0928   -0.1066    0.6806 N   0  0  0  0  0  3           0  0  0
   -8.1014    4.2548   -0.9972 N   0  0  0  0  0  3           0  0  0
    5.4694    0.5532    1.1959 N   0  0  1  0  0  3           0  0  0
   -8.5275    6.6659   -0.6671 C   0  0  0  0  0  4           0  0  0
   -8.0769    7.9791   -0.7693 C   0  0  0  0  0  4           0  0  0
    0.0000    0.0000    0.0000 C   0  0  0  0  0  4           0  0  0
   -0.7791    0.0000    1.1539 C   0  0  0  0  0  4           0  0  0
   -3.8744    0.0569   -2.6953 C   0  0  0  0  0  4           0  0  0
   -6.3329    0.4399    0.7878 C   0  0  0  0  0  4           0  0  0
   -4.2136   -0.0675   -0.4284 C   0  0  0  0  0  4           0  0  0
   -2.0100    0.0319   -1.3826 C   0  0  0  0  0  4           0  0  0
   -8.2691    0.9886    1.7355 C   0  0  0  0  0  4           0  0  0
   -7.7159    5.6064   -1.0815 C   0  0  0  0  0  4           0  0  0
   -2.8104   -0.0323   -0.2230 C   0  0  0  0  0  4           0  0  0
   -6.8182    8.2629   -1.2864 C   0  0  0  0  0  4           0  0  0
   -0.6238    0.0488   -1.2495 C   0  0  0  0  0  4           0  0  0
   -2.1702   -0.0463    1.0418 C   0  0  0  0  0  4           0  0  0
   -7.0967    0.3162    1.9793 C   0  0  0  0  0  4           0  0  0
   -6.4481    5.8926   -1.6057 C   0  0  0  0  0  4           0  0  0
   -6.0029    7.2147   -1.7071 C   0  0  0  0  0  4           0  0  0
   -8.9554    3.7213   -0.0450 C   0  0  0  0  0  4           0  0  0
    1.9811   -1.1163    0.6445 C   0  0  0  0  0  4           0  0  0
    5.7418    1.9328   -0.9561 C   0  0  0  0  0  4           0  0  0
   -0.0394    1.2968    2.9809 C   0  0  0  0  0  4           0  0  0
   -9.1506    2.2392   -0.2505 C   0  0  0  0  0  4           0  0  0
    6.0355    0.6531   -0.1526 C   0  0  0  0  0  4           0  0  0
    5.9162    1.6094    2.1015 C   0  0  0  0  0  4           0  0  0
    4.0230    0.3167    1.2286 C   0  0  0  0  0  4           0  0  0
    7.4265    1.7203    2.3772 C   0  0  1  0  0  4           0  0  0
    3.4946   -0.9632    0.5561 C   0  0  0  0  0  4           0  0  0
    7.7559    2.8639    3.3387 C   0  0  0  0  0  4           0  0  0
    8.0165    0.4064    2.8937 C   0  0  0  0  0  4           0  0  0
  1 14  1  0     0  0
  2 15  1  0     0  0
  3 16  1  0     0  0
  3 32  1  0     0  0
  4 17  1  0     0  0
  4 34  1  0     0  0
  5 31  2  0     0  0
  6 33  1  0     0  0
  7  8  1  0     0  0
  7 22  1  0     0  0
  7 35  1  0     0  0
  8 19  2  0     0  0
  9 18  1  0     0  0
  9 20  2  0     0  0
 10 18  2  0     0  0
 10 21  1  0     0  0
 11 19  1  0     0  0
 11 20  1  0     0  0
 12 23  1  0     0  0
 12 31  1  0     0  0
 13 36  1  0     0  0
 13 37  1  0     0  0
 13 38  1  0     0  0
 14 15  1  0     0  0
 14 23  2  0     0  0
 15 25  2  0     0  0
 16 17  1  0     0  0
 16 26  2  0     0  0
 17 27  2  0     0  0
 19 28  1  0     0  0
 20 24  1  0     0  0
 21 24  2  0     0  0
 21 26  1  0     0  0
 22 28  2  0     0  0
 23 29  1  0     0  0
 24 27  1  0     0  0
 25 30  1  0     0  0
 29 30  2  0     0  0
 31 35  1  0     0  0
 32 40  1  0     0  0
 33 36  1  0     0  0
 37 39  1  0     0  0
 38 40  1  0     0  0
 39 41  1  0     0  0
 39 42  1  0     0  0
M  END
> <standard_type>
pIC50

> <# Confs.>
25

> <canonical_smiles>
O=C(CN(C=C1)N=C1NC2=NC=NC3=C2C=C(OC)C(OCCCN(CC(C)C)CCO)=C3)NC4=C(F)C(F)=CC=C4

> <standard_relation>
=

> <Publication_ID>
nan

> <predicted_activity_value>
8.031517051446064

> <actual_activity_value>
8.096910013008056

> <Compound>
5

> <standard_units>
nM

> hash
13470637940307672993

$$$$
4
XXILIB    08252103493D 0   0.00000     0.00000

 42 45  0     1  0            999 V2000
   -9.7513    6.4501   -0.1634 F   0  0  0  0  0  1           0  0  0
   -8.8654    8.9830   -0.3610 F   0  0  0  0  0  1           0  0  0
    1.3663   -0.0000   -0.0000 O   0  0  0  0  0  2           0  0  0
   -0.2639    0.0061    2.4192 O   0  0  0  0  0  2           0  0  0
   -9.4868    4.3492    0.8677 O   0  0  0  0  0  2           0  0  0
    6.8660    0.3717    3.8570 O   0  0  0  0  0  2           0  0  0
   -8.1615    1.4634    0.4636 N   0  0  0  0  0  3           0  0  0
   -7.0027    1.1424   -0.1403 N   0  0  0  0  0  3           0  0  0
   -4.7418   -0.0038   -1.6757 N   0  0  0  0  0  3           0  0  0
   -2.5362    0.0737   -2.6131 N   0  0  0  0  0  3           0  0  0
   -5.0928   -0.1066    0.6806 N   0  0  0  0  0  3           0  0  0
   -8.1014    4.2548   -0.9972 N   0  0  0  0  0  3           0  0  0
    5.7329   -2.0581    1.1882 N   0  0  1  0  0  3           0  0  0
   -8.5275    6.6659   -0.6671 C   0  0  0  0  0  4           0  0  0
   -8.0769    7.9791   -0.7693 C   0  0  0  0  0  4           0  0  0
    0.0000    0.0000    0.0000 C   0  0  0  0  0  4           0  0  0
   -0.7791    0.0000    1.1539 C   0  0  0  0  0  4           0  0  0
   -3.8744    0.0569   -2.6953 C   0  0  0  0  0  4           0  0  0
   -6.3329    0.4399    0.7878 C   0  0  0  0  0  4           0  0  0
   -4.2136   -0.0675   -0.4284 C   0  0  0  0  0  4           0  0  0
   -2.0100    0.0319   -1.3826 C   0  0  0  0  0  4           0  0  0
   -8.2691    0.9886    1.7355 C   0  0  0  0  0  4           0  0  0
   -7.7159    5.6064   -1.0815 C   0  0  0  0  0  4           0  0  0
   -2.8104   -0.0323   -0.2230 C   0  0  0  0  0  4           0  0  0
   -6.8182    8.2629   -1.2864 C   0  0  0  0  0  4           0  0  0
   -0.6238    0.0488   -1.2495 C   0  0  0  0  0  4           0  0  0
   -2.1702   -0.0463    1.0418 C   0  0  0  0  0  4           0  0  0
   -7.0967    0.3162    1.9793 C   0  0  0  0  0  4           0  0  0
   -6.4481    5.8926   -1.6057 C   0  0  0  0  0  4           0  0  0
   -6.0029    7.2147   -1.7071 C   0  0  0  0  0  4           0  0  0
   -8.9554    3.7213   -0.0450 C   0  0  0  0  0  4           0  0  0
    1.9811   -1.1163    0.6445 C   0  0  0  0  0  4           0  0  0
    6.2743   -0.8300    3.3808 C   0  0  0  0  0  4           0  0  0
   -0.0394    1.2968    2.9809 C   0  0  0  0  0  4           0  0  0
   -9.1506    2.2392   -0.2505 C   0  0  0  0  0  4           0  0  0
    6.3068   -0.8785    1.8426 C   0  0  0  0  0  4           0  0  0
    6.3823   -3.3127    1.5618 C   0  0  0  0  0  4           0  0  0
    4.2685   -2.1156    1.2214 C   0  0  0  0  0  4           0  0  0
    7.8846   -3.4558    1.2580 C   0  0  1  0  0  4           0  0  0
    3.4946   -0.9632    0.5561 C   0  0  0  0  0  4           0  0  0
    8.4364   -4.8130    1.6987 C   0  0  0  0  0  4           0  0  0
    8.2003   -3.2089   -0.2187 C   0  0  0  0  0  4           0  0  0
  1 14  1  0     0  0
  2 15  1  0     0  0
  3 16  1  0     0  0
  3 32  1  0     0  0
  4 17  1  0     0  0
  4 34  1  0     0  0
  5 31  2  0     0  0
  6 33  1  0     0  0
  7  8  1  0     0  0
  7 22  1  0     0  0
  7 35  1  0     0  0
  8 19  2  0     0  0
  9 18  1  0     0  0
  9 20  2  0     0  0
 10 18  2  0     0  0
 10 21  1  0     0  0
 11 19  1  0     0  0
 11 20  1  0     0  0
 12 23  1  0     0  0
 12 31  1  0     0  0
 13 36  1  0     0  0
 13 37  1  0     0  0
 13 38  1  0     0  0
 14 15  1  0     0  0
 14 23  2  0     0  0
 15 25  2  0     0  0
 16 17  1  0     0  0
 16 26  2  0     0  0
 17 27  2  0     0  0
 19 28  1  0     0  0
 20 24  1  0     0  0
 21 24  2  0     0  0
 21 26  1  0     0  0
 22 28  2  0     0  0
 23 29  1  0     0  0
 24 27  1  0     0  0
 25 30  1  0     0  0
 29 30  2  0     0  0
 31 35  1  0     0  0
 32 40  1  0     0  0
 33 36  1  0     0  0
 37 39  1  0     0  0
 38 40  1  0     0  0
 39 41  1  0     0  0
 39 42  1  0     0  0
M  END
> <standard_type>
pIC50

> <# Confs.>
25

> <canonical_smiles>
O=C(CN(C=C1)N=C1NC2=NC=NC3=C2C=C(OC)C(OCCCN(CC(C)C)CCO)=C3)NC4=C(F)C(F)=CC=C4

> <standard_relation>
=

> <Publication_ID>
nan

> <predicted_activity_value>
8.031517051446064

> <actual_activity_value>
8.096910013008056

> <Compound>
5

> <standard_units>
nM

> hash
13470637940307672993

$$$$
4
XXILIB    08252103493D 0   0.00000     0.00000

 42 45  0     1  0            999 V2000
   -9.7513    6.4501   -0.1634 F   0  0  0  0  0  1           0  0  0
   -8.8654    8.9830   -0.3610 F   0  0  0  0  0  1           0  0  0
    1.3663   -0.0000   -0.0000 O   0  0  0  0  0  2           0  0  0
   -0.2639    0.0061    2.4192 O   0  0  0  0  0  2           0  0  0
   -9.4868    4.3492    0.8677 O   0  0  0  0  0  2           0  0  0
    7.3006   -2.6985    1.9033 O   0  0  0  0  0  2           0  0  0
   -8.1615    1.4634    0.4636 N   0  0  0  0  0  3           0  0  0
   -7.0027    1.1424   -0.1403 N   0  0  0  0  0  3           0  0  0
   -4.7418   -0.0038   -1.6757 N   0  0  0  0  0  3           0  0  0
   -2.5362    0.0737   -2.6131 N   0  0  0  0  0  3           0  0  0
   -5.0928   -0.1066    0.6806 N   0  0  0  0  0  3           0  0  0
   -8.1014    4.2548   -0.9972 N   0  0  0  0  0  3           0  0  0
    5.6199   -0.3856   -0.5737 N   0  0  1  0  0  3           0  0  0
   -8.5275    6.6659   -0.6671 C   0  0  0  0  0  4           0  0  0
   -8.0769    7.9791   -0.7693 C   0  0  0  0  0  4           0  0  0
    0.0000    0.0000    0.0000 C   0  0  0  0  0  4           0  0  0
   -0.7791    0.0000    1.1539 C   0  0  0  0  0  4           0  0  0
   -3.8744    0.0569   -2.6953 C   0  0  0  0  0  4           0  0  0
   -6.3329    0.4399    0.7878 C   0  0  0  0  0  4           0  0  0
   -4.2136   -0.0675   -0.4284 C   0  0  0  0  0  4           0  0  0
   -2.0100    0.0319   -1.3826 C   0  0  0  0  0  4           0  0  0
   -8.2691    0.9886    1.7355 C   0  0  0  0  0  4           0  0  0
   -7.7159    5.6064   -1.0815 C   0  0  0  0  0  4           0  0  0
   -2.8104   -0.0323   -0.2230 C   0  0  0  0  0  4           0  0  0
   -6.8182    8.2629   -1.2864 C   0  0  0  0  0  4           0  0  0
   -0.6238    0.0488   -1.2495 C   0  0  0  0  0  4           0  0  0
   -2.1702   -0.0463    1.0418 C   0  0  0  0  0  4           0  0  0
   -7.0967    0.3162    1.9793 C   0  0  0  0  0  4           0  0  0
   -6.4481    5.8926   -1.6057 C   0  0  0  0  0  4           0  0  0
   -6.0029    7.2147   -1.7071 C   0  0  0  0  0  4           0  0  0
   -8.9554    3.7213   -0.0450 C   0  0  0  0  0  4           0  0  0
    1.9811   -1.1163    0.6445 C   0  0  0  0  0  4           0  0  0
    6.5000   -1.5876    1.5213 C   0  0  0  0  0  4           0  0  0
   -0.0394    1.2968    2.9809 C   0  0  0  0  0  4           0  0  0
   -9.1506    2.2392   -0.2505 C   0  0  0  0  0  4           0  0  0
    6.4126   -1.4834   -0.0120 C   0  0  0  0  0  4           0  0  0
    5.5939   -0.3660   -2.0346 C   0  0  0  0  0  4           0  0  0
    4.3023   -0.2127    0.0452 C   0  0  0  0  0  4           0  0  0
    6.9386   -0.2215   -2.7696 C   0  0  1  0  0  4           0  0  0
    3.3202   -1.3958   -0.0267 C   0  0  0  0  0  4           0  0  0
    6.7683   -0.2153   -4.2901 C   0  0  0  0  0  4           0  0  0
    7.7126    1.0186   -2.3175 C   0  0  0  0  0  4           0  0  0
  1 14  1  0     0  0
  2 15  1  0     0  0
  3 16  1  0     0  0
  3 32  1  0     0  0
  4 17  1  0     0  0
  4 34  1  0     0  0
  5 31  2  0     0  0
  6 33  1  0     0  0
  7  8  1  0     0  0
  7 22  1  0     0  0
  7 35  1  0     0  0
  8 19  2  0     0  0
  9 18  1  0     0  0
  9 20  2  0     0  0
 10 18  2  0     0  0
 10 21  1  0     0  0
 11 19  1  0     0  0
 11 20  1  0     0  0
 12 23  1  0     0  0
 12 31  1  0     0  0
 13 36  1  0     0  0
 13 37  1  0     0  0
 13 38  1  0     0  0
 14 15  1  0     0  0
 14 23  2  0     0  0
 15 25  2  0     0  0
 16 17  1  0     0  0
 16 26  2  0     0  0
 17 27  2  0     0  0
 19 28  1  0     0  0
 20 24  1  0     0  0
 21 24  2  0     0  0
 21 26  1  0     0  0
 22 28  2  0     0  0
 23 29  1  0     0  0
 24 27  1  0     0  0
 25 30  1  0     0  0
 29 30  2  0     0  0
 31 35  1  0     0  0
 32 40  1  0     0  0
 33 36  1  0     0  0
 37 39  1  0     0  0
 38 40  1  0     0  0
 39 41  1  0     0  0
 39 42  1  0     0  0
M  END
> <standard_type>
pIC50

> <# Confs.>
25

> <canonical_smiles>
O=C(CN(C=C1)N=C1NC2=NC=NC3=C2C=C(OC)C(OCCCN(CC(C)C)CCO)=C3)NC4=C(F)C(F)=CC=C4

> <standard_relation>
=

> <Publication_ID>
nan

> <predicted_activity_value>
8.031517051446064

> <actual_activity_value>
8.096910013008056

> <Compound>
5

> <standard_units>
nM

> hash
13470637940307672993

$$$$
4
XXILIB    08252103493D 0   0.00000     0.00000

 42 45  0     1  0            999 V2000
   -9.7513    6.4501   -0.1634 F   0  0  0  0  0  1           0  0  0
   -8.8654    8.9830   -0.3610 F   0  0  0  0  0  1           0  0  0
    1.3663   -0.0000    0.0000 O   0  0  0  0  0  2           0  0  0
   -0.2639    0.0061    2.4192 O   0  0  0  0  0  2           0  0  0
   -9.4868    4.3492    0.8677 O   0  0  0  0  0  2           0  0  0
    6.4222   -2.8995   -2.4349 O   0  0  0  0  0  2           0  0  0
   -8.1615    1.4634    0.4636 N   0  0  0  0  0  3           0  0  0
   -7.0027    1.1424   -0.1403 N   0  0  0  0  0  3           0  0  0
   -4.7418   -0.0038   -1.6757 N   0  0  0  0  0  3           0  0  0
   -2.5362    0.0737   -2.6131 N   0  0  0  0  0  3           0  0  0
   -5.0928   -0.1066    0.6806 N   0  0  0  0  0  3           0  0  0
   -8.1014    4.2548   -0.9972 N   0  0  0  0  0  3           0  0  0
    5.7329   -2.0581    1.1882 N   0  0  1  0  0  3           0  0  0
   -8.5275    6.6659   -0.6671 C   0  0  0  0  0  4           0  0  0
   -8.0769    7.9791   -0.7693 C   0  0  0  0  0  4           0  0  0
    0.0000    0.0000    0.0000 C   0  0  0  0  0  4           0  0  0
   -0.7791    0.0000    1.1539 C   0  0  0  0  0  4           0  0  0
   -3.8744    0.0569   -2.6953 C   0  0  0  0  0  4           0  0  0
   -6.3329    0.4399    0.7878 C   0  0  0  0  0  4           0  0  0
   -4.2136   -0.0675   -0.4284 C   0  0  0  0  0  4           0  0  0
   -2.0100    0.0319   -1.3826 C   0  0  0  0  0  4           0  0  0
   -8.2691    0.9886    1.7355 C   0  0  0  0  0  4           0  0  0
   -7.7159    5.6064   -1.0815 C   0  0  0  0  0  4           0  0  0
   -2.8104   -0.0323   -0.2230 C   0  0  0  0  0  4           0  0  0
   -6.8182    8.2629   -1.2864 C   0  0  0  0  0  4           0  0  0
   -0.6238    0.0488   -1.2495 C   0  0  0  0  0  4           0  0  0
   -2.1702   -0.0463    1.0418 C   0  0  0  0  0  4           0  0  0
   -7.0967    0.3162    1.9793 C   0  0  0  0  0  4           0  0  0
   -6.4481    5.8926   -1.6057 C   0  0  0  0  0  4           0  0  0
   -6.0029    7.2147   -1.7071 C   0  0  0  0  0  4           0  0  0
   -8.9554    3.7213   -0.0450 C   0  0  0  0  0  4           0  0  0
    1.9811   -1.1163    0.6445 C   0  0  0  0  0  4           0  0  0
    5.7665   -3.0512   -1.1827 C   0  0  0  0  0  4           0  0  0
   -0.0394    1.2968    2.9809 C   0  0  0  0  0  4           0  0  0
   -9.1506    2.2392   -0.2505 C   0  0  0  0  0  4           0  0  0
    6.3068   -2.0350   -0.1605 C   0  0  0  0  0  4           0  0  0
    6.3059   -1.0601    2.0888 C   0  0  0  0  0  4           0  0  0
    4.2685   -2.1156    1.2214 C   0  0  0  0  0  4           0  0  0
    7.8185   -1.1335    2.3646 C   0  0  1  0  0  4           0  0  0
    3.4946   -0.9632    0.5561 C   0  0  0  0  0  4           0  0  0
    8.2856   -0.0341    3.3206 C   0  0  0  0  0  4           0  0  0
    8.2432   -2.5073    2.8879 C   0  0  0  0  0  4           0  0  0
  1 14  1  0     0  0
  2 15  1  0     0  0
  3 16  1  0     0  0
  3 32  1  0     0  0
  4 17  1  0     0  0
  4 34  1  0     0  0
  5 31  2  0     0  0
  6 33  1  0     0  0
  7  8  1  0     0  0
  7 22  1  0     0  0
  7 35  1  0     0  0
  8 19  2  0     0  0
  9 18  1  0     0  0
  9 20  2  0     0  0
 10 18  2  0     0  0
 10 21  1  0     0  0
 11 19  1  0     0  0
 11 20  1  0     0  0
 12 23  1  0     0  0
 12 31  1  0     0  0
 13 36  1  0     0  0
 13 37  1  0     0  0
 13 38  1  0     0  0
 14 15  1  0     0  0
 14 23  2  0     0  0
 15 25  2  0     0  0
 16 17  1  0     0  0
 16 26  2  0     0  0
 17 27  2  0     0  0
 19 28  1  0     0  0
 20 24  1  0     0  0
 21 24  2  0     0  0
 21 26  1  0     0  0
 22 28  2  0     0  0
 23 29  1  0     0  0
 24 27  1  0     0  0
 25 30  1  0     0  0
 29 30  2  0     0  0
 31 35  1  0     0  0
 32 40  1  0     0  0
 33 36  1  0     0  0
 37 39  1  0     0  0
 38 40  1  0     0  0
 39 41  1  0     0  0
 39 42  1  0     0  0
M  END
> <standard_type>
pIC50

> <# Confs.>
25

> <canonical_smiles>
O=C(CN(C=C1)N=C1NC2=NC=NC3=C2C=C(OC)C(OCCCN(CC(C)C)CCO)=C3)NC4=C(F)C(F)=CC=C4

> <standard_relation>
=

> <Publication_ID>
nan

> <predicted_activity_value>
8.031517051446064

> <actual_activity_value>
8.096910013008056

> <Compound>
5

> <standard_units>
nM

> hash
13470637940307672993

$$$$
4
XXILIB    08252103493D 0   0.00000     0.00000

 42 45  0     1  0            999 V2000
   -9.7513    6.4501   -0.1634 F   0  0  0  0  0  1           0  0  0
   -8.8654    8.9830   -0.3610 F   0  0  0  0  0  1           0  0  0
    1.3663   -0.0000   -0.0000 O   0  0  0  0  0  2           0  0  0
   -0.2639    0.0061    2.4192 O   0  0  0  0  0  2           0  0  0
   -9.4868    4.3492    0.8677 O   0  0  0  0  0  2           0  0  0
    7.0668   -4.1435   -0.5255 O   0  0  0  0  0  2           0  0  0
   -8.1615    1.4634    0.4636 N   0  0  0  0  0  3           0  0  0
   -7.0027    1.1424   -0.1403 N   0  0  0  0  0  3           0  0  0
   -4.7418   -0.0038   -1.6757 N   0  0  0  0  0  3           0  0  0
   -2.5362    0.0737   -2.6131 N   0  0  0  0  0  3           0  0  0
   -5.0928   -0.1066    0.6806 N   0  0  0  0  0  3           0  0  0
   -8.1014    4.2548   -0.9972 N   0  0  0  0  0  3           0  0  0
    5.4694   -0.7591   -1.0770 N   0  0  1  0  0  3           0  0  0
   -8.5275    6.6659   -0.6671 C   0  0  0  0  0  4           0  0  0
   -8.0769    7.9791   -0.7693 C   0  0  0  0  0  4           0  0  0
    0.0000    0.0000    0.0000 C   0  0  0  0  0  4           0  0  0
   -0.7791    0.0000    1.1539 C   0  0  0  0  0  4           0  0  0
   -3.8744    0.0569   -2.6953 C   0  0  0  0  0  4           0  0  0
   -6.3329    0.4399    0.7878 C   0  0  0  0  0  4           0  0  0
   -4.2136   -0.0675   -0.4284 C   0  0  0  0  0  4           0  0  0
   -2.0100    0.0319   -1.3826 C   0  0  0  0  0  4           0  0  0
   -8.2691    0.9886    1.7355 C   0  0  0  0  0  4           0  0  0
   -7.7159    5.6064   -1.0815 C   0  0  0  0  0  4           0  0  0
   -2.8104   -0.0323   -0.2230 C   0  0  0  0  0  4           0  0  0
   -6.8182    8.2629   -1.2864 C   0  0  0  0  0  4           0  0  0
   -0.6238    0.0488   -1.2495 C   0  0  0  0  0  4           0  0  0
   -2.1702   -0.0463    1.0418 C   0  0  0  0  0  4           0  0  0
   -7.0967    0.3162    1.9793 C   0  0  0  0  0  4           0  0  0
   -6.4481    5.8926   -1.6057 C   0  0  0  0  0  4           0  0  0
   -6.0029    7.2147   -1.7071 C   0  0  0  0  0  4           0  0  0
   -8.9554    3.7213   -0.0450 C   0  0  0  0  0  4           0  0  0
    1.9811   -1.1163    0.6445 C   0  0  0  0  0  4           0  0  0
    6.2465   -3.2059   -1.2105 C   0  0  0  0  0  4           0  0  0
   -0.0394    1.2968    2.9809 C   0  0  0  0  0  4           0  0  0
   -9.1506    2.2392   -0.2505 C   0  0  0  0  0  4           0  0  0
    6.2678   -1.8426   -0.4960 C   0  0  0  0  0  4           0  0  0
    5.8551   -0.4109   -2.4427 C   0  0  0  0  0  4           0  0  0
    4.0230   -0.9057   -0.8885 C   0  0  0  0  0  4           0  0  0
    7.2983    0.0719   -2.6747 C   0  0  1  0  0  4           0  0  0
    3.4946   -0.9632    0.5561 C   0  0  0  0  0  4           0  0  0
    7.5680    0.4019   -4.1441 C   0  0  0  0  0  4           0  0  0
    7.6561    1.2667   -1.7883 C   0  0  0  0  0  4           0  0  0
  1 14  1  0     0  0
  2 15  1  0     0  0
  3 16  1  0     0  0
  3 32  1  0     0  0
  4 17  1  0     0  0
  4 34  1  0     0  0
  5 31  2  0     0  0
  6 33  1  0     0  0
  7  8  1  0     0  0
  7 22  1  0     0  0
  7 35  1  0     0  0
  8 19  2  0     0  0
  9 18  1  0     0  0
  9 20  2  0     0  0
 10 18  2  0     0  0
 10 21  1  0     0  0
 11 19  1  0     0  0
 11 20  1  0     0  0
 12 23  1  0     0  0
 12 31  1  0     0  0
 13 36  1  0     0  0
 13 37  1  0     0  0
 13 38  1  0     0  0
 14 15  1  0     0  0
 14 23  2  0     0  0
 15 25  2  0     0  0
 16 17  1  0     0  0
 16 26  2  0     0  0
 17 27  2  0     0  0
 19 28  1  0     0  0
 20 24  1  0     0  0
 21 24  2  0     0  0
 21 26  1  0     0  0
 22 28  2  0     0  0
 23 29  1  0     0  0
 24 27  1  0     0  0
 25 30  1  0     0  0
 29 30  2  0     0  0
 31 35  1  0     0  0
 32 40  1  0     0  0
 33 36  1  0     0  0
 37 39  1  0     0  0
 38 40  1  0     0  0
 39 41  1  0     0  0
 39 42  1  0     0  0
M  END
> <standard_type>
pIC50

> <# Confs.>
25

> <canonical_smiles>
O=C(CN(C=C1)N=C1NC2=NC=NC3=C2C=C(OC)C(OCCCN(CC(C)C)CCO)=C3)NC4=C(F)C(F)=CC=C4

> <standard_relation>
=

> <Publication_ID>
nan

> <predicted_activity_value>
8.031517051446064

> <actual_activity_value>
8.096910013008056

> <Compound>
5

> <standard_units>
nM

> hash
13470637940307672993

$$$$
4
XXILIB    08252103493D 0   0.00000     0.00000

 42 45  0     1  0            999 V2000
   -9.7513    6.4501   -0.1634 F   0  0  0  0  0  1           0  0  0
   -8.8654    8.9830   -0.3610 F   0  0  0  0  0  1           0  0  0
    1.3663    0.0000   -0.0000 O   0  0  0  0  0  2           0  0  0
   -0.2639    0.0061    2.4192 O   0  0  0  0  0  2           0  0  0
   -9.4868    4.3492    0.8677 O   0  0  0  0  0  2           0  0  0
    7.1778   -5.0258    2.6671 O   0  0  0  0  0  2           0  0  0
   -8.1615    1.4634    0.4636 N   0  0  0  0  0  3           0  0  0
   -7.0027    1.1424   -0.1403 N   0  0  0  0  0  3           0  0  0
   -4.7418   -0.0038   -1.6757 N   0  0  0  0  0  3           0  0  0
   -2.5362    0.0737   -2.6131 N   0  0  0  0  0  3           0  0  0
   -5.0928   -0.1066    0.6806 N   0  0  0  0  0  3           0  0  0
   -8.1014    4.2548   -0.9972 N   0  0  0  0  0  3           0  0  0
    4.4381   -2.5024    2.0066 N   0  0  1  0  0  3           0  0  0
   -8.5275    6.6659   -0.6671 C   0  0  0  0  0  4           0  0  0
   -8.0769    7.9791   -0.7693 C   0  0  0  0  0  4           0  0  0
    0.0000    0.0000    0.0000 C   0  0  0  0  0  4           0  0  0
   -0.7791    0.0000    1.1539 C   0  0  0  0  0  4           0  0  0
   -3.8744    0.0569   -2.6953 C   0  0  0  0  0  4           0  0  0
   -6.3329    0.4399    0.7878 C   0  0  0  0  0  4           0  0  0
   -4.2136   -0.0675   -0.4284 C   0  0  0  0  0  4           0  0  0
   -2.0100    0.0319   -1.3826 C   0  0  0  0  0  4           0  0  0
   -8.2691    0.9886    1.7355 C   0  0  0  0  0  4           0  0  0
   -7.7159    5.6064   -1.0815 C   0  0  0  0  0  4           0  0  0
   -2.8104   -0.0323   -0.2230 C   0  0  0  0  0  4           0  0  0
   -6.8182    8.2629   -1.2864 C   0  0  0  0  0  4           0  0  0
   -0.6238    0.0488   -1.2495 C   0  0  0  0  0  4           0  0  0
   -2.1702   -0.0463    1.0418 C   0  0  0  0  0  4           0  0  0
   -7.0967    0.3162    1.9793 C   0  0  0  0  0  4           0  0  0
   -6.4481    5.8926   -1.6057 C   0  0  0  0  0  4           0  0  0
   -6.0029    7.2147   -1.7071 C   0  0  0  0  0  4           0  0  0
   -8.9554    3.7213   -0.0450 C   0  0  0  0  0  4           0  0  0
    1.9811   -1.1163    0.6445 C   0  0  0  0  0  4           0  0  0
    6.6257   -3.8500    2.0894 C   0  0  0  0  0  4           0  0  0
   -0.0394    1.2968    2.9809 C   0  0  0  0  0  4           0  0  0
   -9.1506    2.2392   -0.2505 C   0  0  0  0  0  4           0  0  0
    5.1579   -3.6725    2.5180 C   0  0  0  0  0  4           0  0  0
    5.0400   -1.2272    2.3899 C   0  0  0  0  0  4           0  0  0
    4.0789   -2.5859    0.5878 C   0  0  0  0  0  4           0  0  0
    5.1599   -0.9188    3.8932 C   0  0  1  0  0  4           0  0  0
    3.3202   -1.3958   -0.0267 C   0  0  0  0  0  4           0  0  0
    5.8057    0.4435    4.1539 C   0  0  0  0  0  4           0  0  0
    3.8116   -1.0128    4.6105 C   0  0  0  0  0  4           0  0  0
  1 14  1  0     0  0
  2 15  1  0     0  0
  3 16  1  0     0  0
  3 32  1  0     0  0
  4 17  1  0     0  0
  4 34  1  0     0  0
  5 31  2  0     0  0
  6 33  1  0     0  0
  7  8  1  0     0  0
  7 22  1  0     0  0
  7 35  1  0     0  0
  8 19  2  0     0  0
  9 18  1  0     0  0
  9 20  2  0     0  0
 10 18  2  0     0  0
 10 21  1  0     0  0
 11 19  1  0     0  0
 11 20  1  0     0  0
 12 23  1  0     0  0
 12 31  1  0     0  0
 13 36  1  0     0  0
 13 37  1  0     0  0
 13 38  1  0     0  0
 14 15  1  0     0  0
 14 23  2  0     0  0
 15 25  2  0     0  0
 16 17  1  0     0  0
 16 26  2  0     0  0
 17 27  2  0     0  0
 19 28  1  0     0  0
 20 24  1  0     0  0
 21 24  2  0     0  0
 21 26  1  0     0  0
 22 28  2  0     0  0
 23 29  1  0     0  0
 24 27  1  0     0  0
 25 30  1  0     0  0
 29 30  2  0     0  0
 31 35  1  0     0  0
 32 40  1  0     0  0
 33 36  1  0     0  0
 37 39  1  0     0  0
 38 40  1  0     0  0
 39 41  1  0     0  0
 39 42  1  0     0  0
M  END
> <standard_type>
pIC50

> <# Confs.>
25

> <canonical_smiles>
O=C(CN(C=C1)N=C1NC2=NC=NC3=C2C=C(OC)C(OCCCN(CC(C)C)CCO)=C3)NC4=C(F)C(F)=CC=C4

> <standard_relation>
=

> <Publication_ID>
nan

> <predicted_activity_value>
8.031517051446064

> <actual_activity_value>
8.096910013008056

> <Compound>
5

> <standard_units>
nM

> hash
13470637940307672993

$$$$
4
XXILIB    08252103493D 0   0.00000     0.00000

 42 45  0     1  0            999 V2000
   -9.7513    6.4501   -0.1634 F   0  0  0  0  0  1           0  0  0
   -8.8654    8.9830   -0.3610 F   0  0  0  0  0  1           0  0  0
    1.3663    0.0000    0.0000 O   0  0  0  0  0  2           0  0  0
   -0.2639    0.0061    2.4192 O   0  0  0  0  0  2           0  0  0
   -9.4868    4.3492    0.8677 O   0  0  0  0  0  2           0  0  0
    5.9744    2.8656   -0.1196 O   0  0  0  0  0  2           0  0  0
   -8.1615    1.4634    0.4636 N   0  0  0  0  0  3           0  0  0
   -7.0027    1.1424   -0.1403 N   0  0  0  0  0  3           0  0  0
   -4.7418   -0.0038   -1.6757 N   0  0  0  0  0  3           0  0  0
   -2.5362    0.0737   -2.6131 N   0  0  0  0  0  3           0  0  0
   -5.0928   -0.1066    0.6806 N   0  0  0  0  0  3           0  0  0
   -8.1014    4.2548   -0.9972 N   0  0  0  0  0  3           0  0  0
    5.4694   -0.7591   -1.0770 N   0  0  1  0  0  3           0  0  0
   -8.5275    6.6659   -0.6671 C   0  0  0  0  0  4           0  0  0
   -8.0769    7.9791   -0.7693 C   0  0  0  0  0  4           0  0  0
    0.0000    0.0000    0.0000 C   0  0  0  0  0  4           0  0  0
   -0.7791    0.0000    1.1539 C   0  0  0  0  0  4           0  0  0
   -3.8744    0.0569   -2.6953 C   0  0  0  0  0  4           0  0  0
   -6.3329    0.4399    0.7878 C   0  0  0  0  0  4           0  0  0
   -4.2136   -0.0675   -0.4284 C   0  0  0  0  0  4           0  0  0
   -2.0100    0.0319   -1.3826 C   0  0  0  0  0  4           0  0  0
   -8.2691    0.9886    1.7355 C   0  0  0  0  0  4           0  0  0
   -7.7159    5.6064   -1.0815 C   0  0  0  0  0  4           0  0  0
   -2.8104   -0.0323   -0.2230 C   0  0  0  0  0  4           0  0  0
   -6.8182    8.2629   -1.2864 C   0  0  0  0  0  4           0  0  0
   -0.6238    0.0488   -1.2495 C   0  0  0  0  0  4           0  0  0
   -2.1702   -0.0463    1.0418 C   0  0  0  0  0  4           0  0  0
   -7.0967    0.3162    1.9793 C   0  0  0  0  0  4           0  0  0
   -6.4481    5.8926   -1.6057 C   0  0  0  0  0  4           0  0  0
   -6.0029    7.2147   -1.7071 C   0  0  0  0  0  4           0  0  0
   -8.9554    3.7213   -0.0450 C   0  0  0  0  0  4           0  0  0
    1.9811   -1.1163    0.6445 C   0  0  0  0  0  4           0  0  0
    5.3023    1.7859   -0.7549 C   0  0  0  0  0  4           0  0  0
   -0.0394    1.2968    2.9809 C   0  0  0  0  0  4           0  0  0
   -9.1506    2.2392   -0.2505 C   0  0  0  0  0  4           0  0  0
    6.0355    0.4587   -0.4893 C   0  0  0  0  0  4           0  0  0
    6.2307   -1.9686   -0.7723 C   0  0  0  0  0  4           0  0  0
    4.0230   -0.9057   -0.8885 C   0  0  0  0  0  4           0  0  0
    7.6983   -2.0222   -1.2336 C   0  0  1  0  0  4           0  0  0
    3.4946   -0.9632    0.5561 C   0  0  0  0  0  4           0  0  0
    8.3762   -3.3395   -0.8517 C   0  0  0  0  0  4           0  0  0
    7.8402   -1.7686   -2.7359 C   0  0  0  0  0  4           0  0  0
  1 14  1  0     0  0
  2 15  1  0     0  0
  3 16  1  0     0  0
  3 32  1  0     0  0
  4 17  1  0     0  0
  4 34  1  0     0  0
  5 31  2  0     0  0
  6 33  1  0     0  0
  7  8  1  0     0  0
  7 22  1  0     0  0
  7 35  1  0     0  0
  8 19  2  0     0  0
  9 18  1  0     0  0
  9 20  2  0     0  0
 10 18  2  0     0  0
 10 21  1  0     0  0
 11 19  1  0     0  0
 11 20  1  0     0  0
 12 23  1  0     0  0
 12 31  1  0     0  0
 13 36  1  0     0  0
 13 37  1  0     0  0
 13 38  1  0     0  0
 14 15  1  0     0  0
 14 23  2  0     0  0
 15 25  2  0     0  0
 16 17  1  0     0  0
 16 26  2  0     0  0
 17 27  2  0     0  0
 19 28  1  0     0  0
 20 24  1  0     0  0
 21 24  2  0     0  0
 21 26  1  0     0  0
 22 28  2  0     0  0
 23 29  1  0     0  0
 24 27  1  0     0  0
 25 30  1  0     0  0
 29 30  2  0     0  0
 31 35  1  0     0  0
 32 40  1  0     0  0
 33 36  1  0     0  0
 37 39  1  0     0  0
 38 40  1  0     0  0
 39 41  1  0     0  0
 39 42  1  0     0  0
M  END
> <standard_type>
pIC50

> <# Confs.>
25

> <canonical_smiles>
O=C(CN(C=C1)N=C1NC2=NC=NC3=C2C=C(OC)C(OCCCN(CC(C)C)CCO)=C3)NC4=C(F)C(F)=CC=C4

> <standard_relation>
=

> <Publication_ID>
nan

> <predicted_activity_value>
8.031517051446064

> <actual_activity_value>
8.096910013008056

> <Compound>
5

> <standard_units>
nM

> hash
13470637940307672993

$$$$
4
XXILIB    08252103493D 0   0.00000     0.00000

 42 45  0     1  0            999 V2000
   -9.7513    6.4501   -0.1634 F   0  0  0  0  0  1           0  0  0
   -8.8654    8.9830   -0.3610 F   0  0  0  0  0  1           0  0  0
    1.3663   -0.0000    0.0000 O   0  0  0  0  0  2           0  0  0
   -0.2639    0.0061    2.4192 O   0  0  0  0  0  2           0  0  0
   -9.4868    4.3492    0.8677 O   0  0  0  0  0  2           0  0  0
    6.6892   -1.9860    3.7207 O   0  0  0  0  0  2           0  0  0
   -8.1615    1.4634    0.4636 N   0  0  0  0  0  3           0  0  0
   -7.0027    1.1424   -0.1403 N   0  0  0  0  0  3           0  0  0
   -4.7418   -0.0038   -1.6757 N   0  0  0  0  0  3           0  0  0
   -2.5362    0.0737   -2.6131 N   0  0  0  0  0  3           0  0  0
   -5.0928   -0.1066    0.6806 N   0  0  0  0  0  3           0  0  0
   -8.1014    4.2548   -0.9972 N   0  0  0  0  0  3           0  0  0
    5.4694    0.5532    1.1959 N   0  0  1  0  0  3           0  0  0
   -8.5275    6.6659   -0.6671 C   0  0  0  0  0  4           0  0  0
   -8.0769    7.9791   -0.7693 C   0  0  0  0  0  4           0  0  0
    0.0000    0.0000    0.0000 C   0  0  0  0  0  4           0  0  0
   -0.7791    0.0000    1.1539 C   0  0  0  0  0  4           0  0  0
   -3.8744    0.0569   -2.6953 C   0  0  0  0  0  4           0  0  0
   -6.3329    0.4399    0.7878 C   0  0  0  0  0  4           0  0  0
   -4.2136   -0.0675   -0.4284 C   0  0  0  0  0  4           0  0  0
   -2.0100    0.0319   -1.3826 C   0  0  0  0  0  4           0  0  0
   -8.2691    0.9886    1.7355 C   0  0  0  0  0  4           0  0  0
   -7.7159    5.6064   -1.0815 C   0  0  0  0  0  4           0  0  0
   -2.8104   -0.0323   -0.2230 C   0  0  0  0  0  4           0  0  0
   -6.8182    8.2629   -1.2864 C   0  0  0  0  0  4           0  0  0
   -0.6238    0.0488   -1.2495 C   0  0  0  0  0  4           0  0  0
   -2.1702   -0.0463    1.0418 C   0  0  0  0  0  4           0  0  0
   -7.0967    0.3162    1.9793 C   0  0  0  0  0  4           0  0  0
   -6.4481    5.8926   -1.6057 C   0  0  0  0  0  4           0  0  0
   -6.0029    7.2147   -1.7071 C   0  0  0  0  0  4           0  0  0
   -8.9554    3.7213   -0.0450 C   0  0  0  0  0  4           0  0  0
    1.9811   -1.1163    0.6445 C   0  0  0  0  0  4           0  0  0
    5.8145   -0.9773    3.2324 C   0  0  0  0  0  4           0  0  0
   -0.0394    1.2968    2.9809 C   0  0  0  0  0  4           0  0  0
   -9.1506    2.2392   -0.2505 C   0  0  0  0  0  4           0  0  0
    6.2678   -0.4917    1.8437 C   0  0  0  0  0  4           0  0  0
    5.9738    0.9506   -0.1167 C   0  0  0  0  0  4           0  0  0
    4.0230    0.3167    1.2286 C   0  0  0  0  0  4           0  0  0
    7.4008    1.5233   -0.1885 C   0  0  1  0  0  4           0  0  0
    3.4946   -0.9632    0.5561 C   0  0  0  0  0  4           0  0  0
    7.8020    1.8975   -1.6167 C   0  0  0  0  0  4           0  0  0
    7.5896    2.7198    0.7464 C   0  0  0  0  0  4           0  0  0
  1 14  1  0     0  0
  2 15  1  0     0  0
  3 16  1  0     0  0
  3 32  1  0     0  0
  4 17  1  0     0  0
  4 34  1  0     0  0
  5 31  2  0     0  0
  6 33  1  0     0  0
  7  8  1  0     0  0
  7 22  1  0     0  0
  7 35  1  0     0  0
  8 19  2  0     0  0
  9 18  1  0     0  0
  9 20  2  0     0  0
 10 18  2  0     0  0
 10 21  1  0     0  0
 11 19  1  0     0  0
 11 20  1  0     0  0
 12 23  1  0     0  0
 12 31  1  0     0  0
 13 36  1  0     0  0
 13 37  1  0     0  0
 13 38  1  0     0  0
 14 15  1  0     0  0
 14 23  2  0     0  0
 15 25  2  0     0  0
 16 17  1  0     0  0
 16 26  2  0     0  0
 17 27  2  0     0  0
 19 28  1  0     0  0
 20 24  1  0     0  0
 21 24  2  0     0  0
 21 26  1  0     0  0
 22 28  2  0     0  0
 23 29  1  0     0  0
 24 27  1  0     0  0
 25 30  1  0     0  0
 29 30  2  0     0  0
 31 35  1  0     0  0
 32 40  1  0     0  0
 33 36  1  0     0  0
 37 39  1  0     0  0
 38 40  1  0     0  0
 39 41  1  0     0  0
 39 42  1  0     0  0
M  END
> <standard_type>
pIC50

> <# Confs.>
25

> <canonical_smiles>
O=C(CN(C=C1)N=C1NC2=NC=NC3=C2C=C(OC)C(OCCCN(CC(C)C)CCO)=C3)NC4=C(F)C(F)=CC=C4

> <standard_relation>
=

> <Publication_ID>
nan

> <predicted_activity_value>
8.031517051446064

> <actual_activity_value>
8.096910013008056

> <Compound>
5

> <standard_units>
nM

> hash
13470637940307672993

$$$$
4
XXILIB    08252103493D 0   0.00000     0.00000

 42 45  0     1  0            999 V2000
   -9.7513    6.4501   -0.1634 F   0  0  0  0  0  1           0  0  0
   -8.8654    8.9830   -0.3610 F   0  0  0  0  0  1           0  0  0
    1.3663    0.0000   -0.0000 O   0  0  0  0  0  2           0  0  0
   -0.2639    0.0061    2.4192 O   0  0  0  0  0  2           0  0  0
   -9.4868    4.3492    0.8677 O   0  0  0  0  0  2           0  0  0
    6.0491   -2.0817   -4.0717 O   0  0  0  0  0  2           0  0  0
   -8.1615    1.4634    0.4636 N   0  0  0  0  0  3           0  0  0
   -7.0027    1.1424   -0.1403 N   0  0  0  0  0  3           0  0  0
   -4.7418   -0.0038   -1.6757 N   0  0  0  0  0  3           0  0  0
   -2.5362    0.0737   -2.6131 N   0  0  0  0  0  3           0  0  0
   -5.0928   -0.1066    0.6806 N   0  0  0  0  0  3           0  0  0
   -8.1014    4.2548   -0.9972 N   0  0  0  0  0  3           0  0  0
    4.0483   -3.3563   -1.1252 N   0  0  1  0  0  3           0  0  0
   -8.5275    6.6659   -0.6671 C   0  0  0  0  0  4           0  0  0
   -8.0769    7.9791   -0.7693 C   0  0  0  0  0  4           0  0  0
    0.0000    0.0000    0.0000 C   0  0  0  0  0  4           0  0  0
   -0.7791    0.0000    1.1539 C   0  0  0  0  0  4           0  0  0
   -3.8744    0.0569   -2.6953 C   0  0  0  0  0  4           0  0  0
   -6.3329    0.4399    0.7878 C   0  0  0  0  0  4           0  0  0
   -4.2136   -0.0675   -0.4284 C   0  0  0  0  0  4           0  0  0
   -2.0100    0.0319   -1.3826 C   0  0  0  0  0  4           0  0  0
   -8.2691    0.9886    1.7355 C   0  0  0  0  0  4           0  0  0
   -7.7159    5.6064   -1.0815 C   0  0  0  0  0  4           0  0  0
   -2.8104   -0.0323   -0.2230 C   0  0  0  0  0  4           0  0  0
   -6.8182    8.2629   -1.2864 C   0  0  0  0  0  4           0  0  0
   -0.6238    0.0488   -1.2495 C   0  0  0  0  0  4           0  0  0
   -2.1702   -0.0463    1.0418 C   0  0  0  0  0  4           0  0  0
   -7.0967    0.3162    1.9793 C   0  0  0  0  0  4           0  0  0
   -6.4481    5.8926   -1.6057 C   0  0  0  0  0  4           0  0  0
   -6.0029    7.2147   -1.7071 C   0  0  0  0  0  4           0  0  0
   -8.9554    3.7213   -0.0450 C   0  0  0  0  0  4           0  0  0
    1.9811   -1.2890    0.0000 C   0  0  0  0  0  4           0  0  0
    5.8853   -2.6355   -2.7727 C   0  0  0  0  0  4           0  0  0
   -0.0394    1.2968    2.9809 C   0  0  0  0  0  4           0  0  0
   -9.1506    2.2392   -0.2505 C   0  0  0  0  0  4           0  0  0
    4.3920   -2.7958   -2.4354 C   0  0  0  0  0  4           0  0  0
    4.5725   -4.7024   -0.9051 C   0  0  0  0  0  4           0  0  0
    4.2685   -2.4429    0.0000 C   0  0  0  0  0  4           0  0  0
    4.1222   -5.8102   -1.8745 C   0  0  1  0  0  4           0  0  0
    3.4946   -1.1122    0.0000 C   0  0  0  0  0  4           0  0  0
    4.7431   -7.1657   -1.5314 C   0  0  0  0  0  4           0  0  0
    2.5983   -5.9279   -1.9477 C   0  0  0  0  0  4           0  0  0
  1 14  1  0     0  0
  2 15  1  0     0  0
  3 16  1  0     0  0
  3 32  1  0     0  0
  4 17  1  0     0  0
  4 34  1  0     0  0
  5 31  2  0     0  0
  6 33  1  0     0  0
  7  8  1  0     0  0
  7 22  1  0     0  0
  7 35  1  0     0  0
  8 19  2  0     0  0
  9 18  1  0     0  0
  9 20  2  0     0  0
 10 18  2  0     0  0
 10 21  1  0     0  0
 11 19  1  0     0  0
 11 20  1  0     0  0
 12 23  1  0     0  0
 12 31  1  0     0  0
 13 36  1  0     0  0
 13 37  1  0     0  0
 13 38  1  0     0  0
 14 15  1  0     0  0
 14 23  2  0     0  0
 15 25  2  0     0  0
 16 17  1  0     0  0
 16 26  2  0     0  0
 17 27  2  0     0  0
 19 28  1  0     0  0
 20 24  1  0     0  0
 21 24  2  0     0  0
 21 26  1  0     0  0
 22 28  2  0     0  0
 23 29  1  0     0  0
 24 27  1  0     0  0
 25 30  1  0     0  0
 29 30  2  0     0  0
 31 35  1  0     0  0
 32 40  1  0     0  0
 33 36  1  0     0  0
 37 39  1  0     0  0
 38 40  1  0     0  0
 39 41  1  0     0  0
 39 42  1  0     0  0
M  END
> <standard_type>
pIC50

> <# Confs.>
25

> <canonical_smiles>
O=C(CN(C=C1)N=C1NC2=NC=NC3=C2C=C(OC)C(OCCCN(CC(C)C)CCO)=C3)NC4=C(F)C(F)=CC=C4

> <standard_relation>
=

> <Publication_ID>
nan

> <predicted_activity_value>
8.031517051446064

> <actual_activity_value>
8.096910013008056

> <Compound>
5

> <standard_units>
nM

> hash
13470637940307672993

$$$$
4
XXILIB    08252103493D 0   0.00000     0.00000

 42 45  0     1  0            999 V2000
   -9.7513    6.4501   -0.1634 F   0  0  0  0  0  1           0  0  0
   -8.8654    8.9830   -0.3610 F   0  0  0  0  0  1           0  0  0
    1.3663    0.0000   -0.0000 O   0  0  0  0  0  2           0  0  0
   -0.2639    0.0061    2.4192 O   0  0  0  0  0  2           0  0  0
   -9.4868    4.3492    0.8677 O   0  0  0  0  0  2           0  0  0
    3.8089   -6.0711    0.1325 O   0  0  0  0  0  2           0  0  0
   -8.1615    1.4634    0.4636 N   0  0  0  0  0  3           0  0  0
   -7.0027    1.1424   -0.1403 N   0  0  0  0  0  3           0  0  0
   -4.7418   -0.0038   -1.6757 N   0  0  0  0  0  3           0  0  0
   -2.5362    0.0737   -2.6131 N   0  0  0  0  0  3           0  0  0
   -5.0928   -0.1066    0.6806 N   0  0  0  0  0  3           0  0  0
   -8.1014    4.2548   -0.9972 N   0  0  0  0  0  3           0  0  0
    3.4225   -3.0938    2.4340 N   0  0  1  0  0  3           0  0  0
   -8.5275    6.6659   -0.6671 C   0  0  0  0  0  4           0  0  0
   -8.0769    7.9791   -0.7693 C   0  0  0  0  0  4           0  0  0
    0.0000    0.0000    0.0000 C   0  0  0  0  0  4           0  0  0
   -0.7791    0.0000    1.1539 C   0  0  0  0  0  4           0  0  0
   -3.8744    0.0569   -2.6953 C   0  0  0  0  0  4           0  0  0
   -6.3329    0.4399    0.7878 C   0  0  0  0  0  4           0  0  0
   -4.2136   -0.0675   -0.4284 C   0  0  0  0  0  4           0  0  0
   -2.0100    0.0319   -1.3826 C   0  0  0  0  0  4           0  0  0
   -8.2691    0.9886    1.7355 C   0  0  0  0  0  4           0  0  0
   -7.7159    5.6064   -1.0815 C   0  0  0  0  0  4           0  0  0
   -2.8104   -0.0323   -0.2230 C   0  0  0  0  0  4           0  0  0
   -6.8182    8.2629   -1.2864 C   0  0  0  0  0  4           0  0  0
   -0.6238    0.0488   -1.2495 C   0  0  0  0  0  4           0  0  0
   -2.1702   -0.0463    1.0418 C   0  0  0  0  0  4           0  0  0
   -7.0967    0.3162    1.9793 C   0  0  0  0  0  4           0  0  0
   -6.4481    5.8926   -1.6057 C   0  0  0  0  0  4           0  0  0
   -6.0029    7.2147   -1.7071 C   0  0  0  0  0  4           0  0  0
   -8.9554    3.7213   -0.0450 C   0  0  0  0  0  4           0  0  0
    1.9811   -0.6445    1.1163 C   0  0  0  0  0  4           0  0  0
    4.2780   -5.0554    1.0097 C   0  0  0  0  0  4           0  0  0
   -0.0394    1.2968    2.9809 C   0  0  0  0  0  4           0  0  0
   -9.1506    2.2392   -0.2505 C   0  0  0  0  0  4           0  0  0
    3.1082   -4.1920    1.5151 C   0  0  0  0  0  4           0  0  0
    4.0589   -3.5290    3.6753 C   0  0  0  0  0  4           0  0  0
    4.0789   -1.9455    1.8019 C   0  0  0  0  0  4           0  0  0
    3.2779   -4.5063    4.5723 C   0  0  1  0  0  4           0  0  0
    3.3202   -1.2222    0.6747 C   0  0  0  0  0  4           0  0  0
    4.0564   -4.8791    5.8355 C   0  0  0  0  0  4           0  0  0
    1.8935   -3.9693    4.9415 C   0  0  0  0  0  4           0  0  0
  1 14  1  0     0  0
  2 15  1  0     0  0
  3 16  1  0     0  0
  3 32  1  0     0  0
  4 17  1  0     0  0
  4 34  1  0     0  0
  5 31  2  0     0  0
  6 33  1  0     0  0
  7  8  1  0     0  0
  7 22  1  0     0  0
  7 35  1  0     0  0
  8 19  2  0     0  0
  9 18  1  0     0  0
  9 20  2  0     0  0
 10 18  2  0     0  0
 10 21  1  0     0  0
 11 19  1  0     0  0
 11 20  1  0     0  0
 12 23  1  0     0  0
 12 31  1  0     0  0
 13 36  1  0     0  0
 13 37  1  0     0  0
 13 38  1  0     0  0
 14 15  1  0     0  0
 14 23  2  0     0  0
 15 25  2  0     0  0
 16 17  1  0     0  0
 16 26  2  0     0  0
 17 27  2  0     0  0
 19 28  1  0     0  0
 20 24  1  0     0  0
 21 24  2  0     0  0
 21 26  1  0     0  0
 22 28  2  0     0  0
 23 29  1  0     0  0
 24 27  1  0     0  0
 25 30  1  0     0  0
 29 30  2  0     0  0
 31 35  1  0     0  0
 32 40  1  0     0  0
 33 36  1  0     0  0
 37 39  1  0     0  0
 38 40  1  0     0  0
 39 41  1  0     0  0
 39 42  1  0     0  0
M  END
> <standard_type>
pIC50

> <# Confs.>
25

> <canonical_smiles>
O=C(CN(C=C1)N=C1NC2=NC=NC3=C2C=C(OC)C(OCCCN(CC(C)C)CCO)=C3)NC4=C(F)C(F)=CC=C4

> <standard_relation>
=

> <Publication_ID>
nan

> <predicted_activity_value>
8.031517051446064

> <actual_activity_value>
8.096910013008056

> <Compound>
5

> <standard_units>
nM

> hash
13470637940307672993

$$$$
4
XXILIB    08252103493D 0   0.00000     0.00000

 42 45  0     1  0            999 V2000
   -9.7513    6.4501   -0.1634 F   0  0  0  0  0  1           0  0  0
   -8.8654    8.9830   -0.3610 F   0  0  0  0  0  1           0  0  0
    1.3663    0.0000    0.0000 O   0  0  0  0  0  2           0  0  0
   -0.2639    0.0061    2.4192 O   0  0  0  0  0  2           0  0  0
   -9.4868    4.3492    0.8677 O   0  0  0  0  0  2           0  0  0
    6.9312   -4.4147    3.9609 O   0  0  0  0  0  2           0  0  0
   -8.1615    1.4634    0.4636 N   0  0  0  0  0  3           0  0  0
   -7.0027    1.1424   -0.1403 N   0  0  0  0  0  3           0  0  0
   -4.7418   -0.0038   -1.6757 N   0  0  0  0  0  3           0  0  0
   -2.5362    0.0737   -2.6131 N   0  0  0  0  0  3           0  0  0
   -5.0928   -0.1066    0.6806 N   0  0  0  0  0  3           0  0  0
   -8.1014    4.2548   -0.9972 N   0  0  0  0  0  3           0  0  0
    4.0483   -2.3441    2.6526 N   0  0  1  0  0  3           0  0  0
   -8.5275    6.6659   -0.6671 C   0  0  0  0  0  4           0  0  0
   -8.0769    7.9791   -0.7693 C   0  0  0  0  0  4           0  0  0
    0.0000    0.0000    0.0000 C   0  0  0  0  0  4           0  0  0
   -0.7791    0.0000    1.1539 C   0  0  0  0  0  4           0  0  0
   -3.8744    0.0569   -2.6953 C   0  0  0  0  0  4           0  0  0
   -6.3329    0.4399    0.7878 C   0  0  0  0  0  4           0  0  0
   -4.2136   -0.0675   -0.4284 C   0  0  0  0  0  4           0  0  0
   -2.0100    0.0319   -1.3826 C   0  0  0  0  0  4           0  0  0
   -8.2691    0.9886    1.7355 C   0  0  0  0  0  4           0  0  0
   -7.7159    5.6064   -1.0815 C   0  0  0  0  0  4           0  0  0
   -2.8104   -0.0323   -0.2230 C   0  0  0  0  0  4           0  0  0
   -6.8182    8.2629   -1.2864 C   0  0  0  0  0  4           0  0  0
   -0.6238    0.0488   -1.2495 C   0  0  0  0  0  4           0  0  0
   -2.1702   -0.0463    1.0418 C   0  0  0  0  0  4           0  0  0
   -7.0967    0.3162    1.9793 C   0  0  0  0  0  4           0  0  0
   -6.4481    5.8926   -1.6057 C   0  0  0  0  0  4           0  0  0
   -6.0029    7.2147   -1.7071 C   0  0  0  0  0  4           0  0  0
   -8.9554    3.7213   -0.0450 C   0  0  0  0  0  4           0  0  0
    1.9811   -1.1163    0.6445 C   0  0  0  0  0  4           0  0  0
    6.3317   -3.2482    3.4121 C   0  0  0  0  0  4           0  0  0
   -0.0394    1.2968    2.9809 C   0  0  0  0  0  4           0  0  0
   -9.1506    2.2392   -0.2505 C   0  0  0  0  0  4           0  0  0
    4.8198   -3.4575    3.2130 C   0  0  0  0  0  4           0  0  0
    4.0994   -1.1273    3.4602 C   0  0  0  0  0  4           0  0  0
    4.2685   -2.1156    1.2214 C   0  0  0  0  0  4           0  0  0
    3.5744   -1.2080    4.9049 C   0  0  1  0  0  4           0  0  0
    3.4946   -0.9632    0.5561 C   0  0  0  0  0  4           0  0  0
    3.6857    0.1315    5.6358 C   0  0  0  0  0  4           0  0  0
    2.1370   -1.7288    4.9678 C   0  0  0  0  0  4           0  0  0
  1 14  1  0     0  0
  2 15  1  0     0  0
  3 16  1  0     0  0
  3 32  1  0     0  0
  4 17  1  0     0  0
  4 34  1  0     0  0
  5 31  2  0     0  0
  6 33  1  0     0  0
  7  8  1  0     0  0
  7 22  1  0     0  0
  7 35  1  0     0  0
  8 19  2  0     0  0
  9 18  1  0     0  0
  9 20  2  0     0  0
 10 18  2  0     0  0
 10 21  1  0     0  0
 11 19  1  0     0  0
 11 20  1  0     0  0
 12 23  1  0     0  0
 12 31  1  0     0  0
 13 36  1  0     0  0
 13 37  1  0     0  0
 13 38  1  0     0  0
 14 15  1  0     0  0
 14 23  2  0     0  0
 15 25  2  0     0  0
 16 17  1  0     0  0
 16 26  2  0     0  0
 17 27  2  0     0  0
 19 28  1  0     0  0
 20 24  1  0     0  0
 21 24  2  0     0  0
 21 26  1  0     0  0
 22 28  2  0     0  0
 23 29  1  0     0  0
 24 27  1  0     0  0
 25 30  1  0     0  0
 29 30  2  0     0  0
 31 35  1  0     0  0
 32 40  1  0     0  0
 33 36  1  0     0  0
 37 39  1  0     0  0
 38 40  1  0     0  0
 39 41  1  0     0  0
 39 42  1  0     0  0
M  END
> <standard_type>
pIC50

> <# Confs.>
25

> <canonical_smiles>
O=C(CN(C=C1)N=C1NC2=NC=NC3=C2C=C(OC)C(OCCCN(CC(C)C)CCO)=C3)NC4=C(F)C(F)=CC=C4

> <standard_relation>
=

> <Publication_ID>
nan

> <predicted_activity_value>
8.031517051446064

> <actual_activity_value>
8.096910013008056

> <Compound>
5

> <standard_units>
nM

> hash
13470637940307672993

$$$$
4
XXILIB    08252103493D 0   0.00000     0.00000

 42 45  0     1  0            999 V2000
   -9.7513    6.4501   -0.1634 F   0  0  0  0  0  1           0  0  0
   -8.8654    8.9830   -0.3610 F   0  0  0  0  0  1           0  0  0
    1.3663    0.0000    0.0000 O   0  0  0  0  0  2           0  0  0
   -0.2639    0.0061    2.4192 O   0  0  0  0  0  2           0  0  0
   -9.4868    4.3492    0.8677 O   0  0  0  0  0  2           0  0  0
    3.0115   -1.7209   -5.2690 O   0  0  0  0  0  2           0  0  0
   -8.1615    1.4634    0.4636 N   0  0  0  0  0  3           0  0  0
   -7.0027    1.1424   -0.1403 N   0  0  0  0  0  3           0  0  0
   -4.7418   -0.0038   -1.6757 N   0  0  0  0  0  3           0  0  0
   -2.5362    0.0737   -2.6131 N   0  0  0  0  0  3           0  0  0
   -5.0928   -0.1066    0.6806 N   0  0  0  0  0  3           0  0  0
   -8.1014    4.2548   -0.9972 N   0  0  0  0  0  3           0  0  0
    4.8469   -1.6134   -1.9630 N   0  0  1  0  0  3           0  0  0
   -8.5275    6.6659   -0.6671 C   0  0  0  0  0  4           0  0  0
   -8.0769    7.9791   -0.7693 C   0  0  0  0  0  4           0  0  0
    0.0000    0.0000    0.0000 C   0  0  0  0  0  4           0  0  0
   -0.7791    0.0000    1.1539 C   0  0  0  0  0  4           0  0  0
   -3.8744    0.0569   -2.6953 C   0  0  0  0  0  4           0  0  0
   -6.3329    0.4399    0.7878 C   0  0  0  0  0  4           0  0  0
   -4.2136   -0.0675   -0.4284 C   0  0  0  0  0  4           0  0  0
   -2.0100    0.0319   -1.3826 C   0  0  0  0  0  4           0  0  0
   -8.2691    0.9886    1.7355 C   0  0  0  0  0  4           0  0  0
   -7.7159    5.6064   -1.0815 C   0  0  0  0  0  4           0  0  0
   -2.8104   -0.0323   -0.2230 C   0  0  0  0  0  4           0  0  0
   -6.8182    8.2629   -1.2864 C   0  0  0  0  0  4           0  0  0
   -0.6238    0.0488   -1.2495 C   0  0  0  0  0  4           0  0  0
   -2.1702   -0.0463    1.0418 C   0  0  0  0  0  4           0  0  0
   -7.0967    0.3162    1.9793 C   0  0  0  0  0  4           0  0  0
   -6.4481    5.8926   -1.6057 C   0  0  0  0  0  4           0  0  0
   -6.0029    7.2147   -1.7071 C   0  0  0  0  0  4           0  0  0
   -8.9554    3.7213   -0.0450 C   0  0  0  0  0  4           0  0  0
    1.9811   -1.1163    0.6445 C   0  0  0  0  0  4           0  0  0
    3.6496   -1.0772   -4.1738 C   0  0  0  0  0  4           0  0  0
   -0.0394    1.2968    2.9809 C   0  0  0  0  0  4           0  0  0
   -9.1506    2.2392   -0.2505 C   0  0  0  0  0  4           0  0  0
    4.1608   -2.1144   -3.1577 C   0  0  0  0  0  4           0  0  0
    6.0478   -0.8346   -2.2571 C   0  0  0  0  0  4           0  0  0
    3.9623   -0.9889   -0.9748 C   0  0  0  0  0  4           0  0  0
    7.1810   -1.5355   -3.0279 C   0  0  1  0  0  4           0  0  0
    2.8438   -1.8565   -0.3702 C   0  0  0  0  0  4           0  0  0
    8.3751   -0.6096   -3.2682 C   0  0  0  0  0  4           0  0  0
    7.6380   -2.8222   -2.3374 C   0  0  0  0  0  4           0  0  0
  1 14  1  0     0  0
  2 15  1  0     0  0
  3 16  1  0     0  0
  3 32  1  0     0  0
  4 17  1  0     0  0
  4 34  1  0     0  0
  5 31  2  0     0  0
  6 33  1  0     0  0
  7  8  1  0     0  0
  7 22  1  0     0  0
  7 35  1  0     0  0
  8 19  2  0     0  0
  9 18  1  0     0  0
  9 20  2  0     0  0
 10 18  2  0     0  0
 10 21  1  0     0  0
 11 19  1  0     0  0
 11 20  1  0     0  0
 12 23  1  0     0  0
 12 31  1  0     0  0
 13 36  1  0     0  0
 13 37  1  0     0  0
 13 38  1  0     0  0
 14 15  1  0     0  0
 14 23  2  0     0  0
 15 25  2  0     0  0
 16 17  1  0     0  0
 16 26  2  0     0  0
 17 27  2  0     0  0
 19 28  1  0     0  0
 20 24  1  0     0  0
 21 24  2  0     0  0
 21 26  1  0     0  0
 22 28  2  0     0  0
 23 29  1  0     0  0
 24 27  1  0     0  0
 25 30  1  0     0  0
 29 30  2  0     0  0
 31 35  1  0     0  0
 32 40  1  0     0  0
 33 36  1  0     0  0
 37 39  1  0     0  0
 38 40  1  0     0  0
 39 41  1  0     0  0
 39 42  1  0     0  0
M  END
> <standard_type>
pIC50

> <# Confs.>
25

> <canonical_smiles>
O=C(CN(C=C1)N=C1NC2=NC=NC3=C2C=C(OC)C(OCCCN(CC(C)C)CCO)=C3)NC4=C(F)C(F)=CC=C4

> <standard_relation>
=

> <Publication_ID>
nan

> <predicted_activity_value>
8.031517051446064

> <actual_activity_value>
8.096910013008056

> <Compound>
5

> <standard_units>
nM

> hash
13470637940307672993

$$$$
4
XXILIB    08252103493D 0   0.00000     0.00000

 42 45  0     1  0            999 V2000
   -9.7513    6.4501   -0.1634 F   0  0  0  0  0  1           0  0  0
   -8.8654    8.9830   -0.3610 F   0  0  0  0  0  1           0  0  0
    1.3663    0.0000    0.0000 O   0  0  0  0  0  2           0  0  0
   -0.2639    0.0061    2.4192 O   0  0  0  0  0  2           0  0  0
   -9.4868    4.3492    0.8677 O   0  0  0  0  0  2           0  0  0
    1.8326   -5.6405   -2.8044 O   0  0  0  0  0  2           0  0  0
   -8.1615    1.4634    0.4636 N   0  0  0  0  0  3           0  0  0
   -7.0027    1.1424   -0.1403 N   0  0  0  0  0  3           0  0  0
   -4.7418   -0.0038   -1.6757 N   0  0  0  0  0  3           0  0  0
   -2.5362    0.0737   -2.6131 N   0  0  0  0  0  3           0  0  0
   -5.0928   -0.1066    0.6806 N   0  0  0  0  0  3           0  0  0
   -8.1014    4.2548   -0.9972 N   0  0  0  0  0  3           0  0  0
    4.4160   -3.8657   -0.6863 N   0  0  1  0  0  3           0  0  0
   -8.5275    6.6659   -0.6671 C   0  0  0  0  0  4           0  0  0
   -8.0769    7.9791   -0.7693 C   0  0  0  0  0  4           0  0  0
    0.0000    0.0000    0.0000 C   0  0  0  0  0  4           0  0  0
   -0.7791    0.0000    1.1539 C   0  0  0  0  0  4           0  0  0
   -3.8744    0.0569   -2.6953 C   0  0  0  0  0  4           0  0  0
   -6.3329    0.4399    0.7878 C   0  0  0  0  0  4           0  0  0
   -4.2136   -0.0675   -0.4284 C   0  0  0  0  0  4           0  0  0
   -2.0100    0.0319   -1.3826 C   0  0  0  0  0  4           0  0  0
   -8.2691    0.9886    1.7355 C   0  0  0  0  0  4           0  0  0
   -7.7159    5.6064   -1.0815 C   0  0  0  0  0  4           0  0  0
   -2.8104   -0.0323   -0.2230 C   0  0  0  0  0  4           0  0  0
   -6.8182    8.2629   -1.2864 C   0  0  0  0  0  4           0  0  0
   -0.6238    0.0488   -1.2495 C   0  0  0  0  0  4           0  0  0
   -2.1702   -0.0463    1.0418 C   0  0  0  0  0  4           0  0  0
   -7.0967    0.3162    1.9793 C   0  0  0  0  0  4           0  0  0
   -6.4481    5.8926   -1.6057 C   0  0  0  0  0  4           0  0  0
   -6.0029    7.2147   -1.7071 C   0  0  0  0  0  4           0  0  0
   -8.9554    3.7213   -0.0450 C   0  0  0  0  0  4           0  0  0
    1.9811   -1.1163    0.6445 C   0  0  0  0  0  4           0  0  0
    2.3795   -5.1501   -1.5872 C   0  0  0  0  0  4           0  0  0
   -0.0394    1.2968    2.9809 C   0  0  0  0  0  4           0  0  0
   -9.1506    2.2392   -0.2505 C   0  0  0  0  0  4           0  0  0
    3.7172   -4.4329   -1.8435 C   0  0  0  0  0  4           0  0  0
    5.6748   -3.2052   -1.0246 C   0  0  0  0  0  4           0  0  0
    3.5610   -3.0867    0.2143 C   0  0  0  0  0  4           0  0  0
    6.7684   -4.0559   -1.6953 C   0  0  1  0  0  4           0  0  0
    2.8438   -1.8565   -0.3702 C   0  0  0  0  0  4           0  0  0
    8.0299   -3.2436   -1.9946 C   0  0  0  0  0  4           0  0  0
    7.1194   -5.2971   -0.8722 C   0  0  0  0  0  4           0  0  0
  1 14  1  0     0  0
  2 15  1  0     0  0
  3 16  1  0     0  0
  3 32  1  0     0  0
  4 17  1  0     0  0
  4 34  1  0     0  0
  5 31  2  0     0  0
  6 33  1  0     0  0
  7  8  1  0     0  0
  7 22  1  0     0  0
  7 35  1  0     0  0
  8 19  2  0     0  0
  9 18  1  0     0  0
  9 20  2  0     0  0
 10 18  2  0     0  0
 10 21  1  0     0  0
 11 19  1  0     0  0
 11 20  1  0     0  0
 12 23  1  0     0  0
 12 31  1  0     0  0
 13 36  1  0     0  0
 13 37  1  0     0  0
 13 38  1  0     0  0
 14 15  1  0     0  0
 14 23  2  0     0  0
 15 25  2  0     0  0
 16 17  1  0     0  0
 16 26  2  0     0  0
 17 27  2  0     0  0
 19 28  1  0     0  0
 20 24  1  0     0  0
 21 24  2  0     0  0
 21 26  1  0     0  0
 22 28  2  0     0  0
 23 29  1  0     0  0
 24 27  1  0     0  0
 25 30  1  0     0  0
 29 30  2  0     0  0
 31 35  1  0     0  0
 32 40  1  0     0  0
 33 36  1  0     0  0
 37 39  1  0     0  0
 38 40  1  0     0  0
 39 41  1  0     0  0
 39 42  1  0     0  0
M  END
> <standard_type>
pIC50

> <# Confs.>
25

> <canonical_smiles>
O=C(CN(C=C1)N=C1NC2=NC=NC3=C2C=C(OC)C(OCCCN(CC(C)C)CCO)=C3)NC4=C(F)C(F)=CC=C4

> <standard_relation>
=

> <Publication_ID>
nan

> <predicted_activity_value>
8.031517051446064

> <actual_activity_value>
8.096910013008056

> <Compound>
5

> <standard_units>
nM

> hash
13470637940307672993

$$$$
4
XXILIB    08252103493D 0   0.00000     0.00000

 42 45  0     1  0            999 V2000
  -11.8540    3.4775   -1.9355 F   0  0  0  0  0  1           0  0  0
  -12.0117    5.9595   -2.9622 F   0  0  0  0  0  1           0  0  0
    1.3663    0.0000    0.0000 O   0  0  0  0  0  2           0  0  0
   -0.2639    0.0061    2.4192 O   0  0  0  0  0  2           0  0  0
  -10.8748    2.0792   -0.3129 O   0  0  0  0  0  2           0  0  0
    3.8089   -5.3239   -2.9208 O   0  0  0  0  0  2           0  0  0
   -8.5031   -0.0225    0.1404 N   0  0  0  0  0  3           0  0  0
   -7.2670   -0.0297   -0.3912 N   0  0  0  0  0  3           0  0  0
   -4.7418   -0.0038   -1.6757 N   0  0  0  0  0  3           0  0  0
   -2.5362    0.0737   -2.6131 N   0  0  0  0  0  3           0  0  0
   -5.0928   -0.1066    0.6806 N   0  0  0  0  0  3           0  0  0
   -9.4193    1.9696   -2.1228 N   0  0  0  0  0  3           0  0  0
    3.4225   -3.8963    0.5610 N   0  0  1  0  0  3           0  0  0
  -10.7752    3.9915   -2.5436 C   0  0  0  0  0  4           0  0  0
  -10.8650    5.2751   -3.0752 C   0  0  0  0  0  4           0  0  0
    0.0000    0.0000    0.0000 C   0  0  0  0  0  4           0  0  0
   -0.7791    0.0000    1.1539 C   0  0  0  0  0  4           0  0  0
   -3.8744    0.0569   -2.6953 C   0  0  0  0  0  4           0  0  0
   -6.4522   -0.0888    0.6747 C   0  0  0  0  0  4           0  0  0
   -4.2136   -0.0675   -0.4284 C   0  0  0  0  0  4           0  0  0
   -2.0100    0.0319   -1.3826 C   0  0  0  0  0  4           0  0  0
   -8.5174   -0.0849    1.5007 C   0  0  0  0  0  4           0  0  0
   -9.5852    3.2661   -2.6462 C   0  0  0  0  0  4           0  0  0
   -2.8104   -0.0323   -0.2230 C   0  0  0  0  0  4           0  0  0
   -9.7794    5.8576   -3.7191 C   0  0  0  0  0  4           0  0  0
   -0.6238    0.0488   -1.2495 C   0  0  0  0  0  4           0  0  0
   -2.1702   -0.0463    1.0418 C   0  0  0  0  0  4           0  0  0
   -7.1990   -0.1303    1.8824 C   0  0  0  0  0  4           0  0  0
   -8.4917    3.8522   -3.2980 C   0  0  0  0  0  4           0  0  0
   -8.5899    5.1415   -3.8314 C   0  0  0  0  0  4           0  0  0
  -10.0706    1.4639   -1.0089 C   0  0  0  0  0  4           0  0  0
    1.9811   -1.1163    0.6445 C   0  0  0  0  0  4           0  0  0
    4.2780   -4.8830   -1.6533 C   0  0  0  0  0  4           0  0  0
   -0.0394    1.2968    2.9809 C   0  0  0  0  0  4           0  0  0
   -9.6564    0.0401   -0.7291 C   0  0  0  0  0  4           0  0  0
    3.1082   -4.3879   -0.7839 C   0  0  0  0  0  4           0  0  0
    4.0589   -4.8938    1.4184 C   0  0  0  0  0  4           0  0  0
    4.0789   -2.5859    0.5878 C   0  0  0  0  0  4           0  0  0
    3.2779   -6.1887    1.7066 C   0  0  1  0  0  4           0  0  0
    3.3202   -1.3958   -0.0267 C   0  0  0  0  0  4           0  0  0
    4.0564   -7.1432    2.6141 C   0  0  0  0  0  4           0  0  0
    1.8935   -5.9083    2.2948 C   0  0  0  0  0  4           0  0  0
  1 14  1  0     0  0
  2 15  1  0     0  0
  3 16  1  0     0  0
  3 32  1  0     0  0
  4 17  1  0     0  0
  4 34  1  0     0  0
  5 31  2  0     0  0
  6 33  1  0     0  0
  7  8  1  0     0  0
  7 22  1  0     0  0
  7 35  1  0     0  0
  8 19  2  0     0  0
  9 18  1  0     0  0
  9 20  2  0     0  0
 10 18  2  0     0  0
 10 21  1  0     0  0
 11 19  1  0     0  0
 11 20  1  0     0  0
 12 23  1  0     0  0
 12 31  1  0     0  0
 13 36  1  0     0  0
 13 37  1  0     0  0
 13 38  1  0     0  0
 14 15  1  0     0  0
 14 23  2  0     0  0
 15 25  2  0     0  0
 16 17  1  0     0  0
 16 26  2  0     0  0
 17 27  2  0     0  0
 19 28  1  0     0  0
 20 24  1  0     0  0
 21 24  2  0     0  0
 21 26  1  0     0  0
 22 28  2  0     0  0
 23 29  1  0     0  0
 24 27  1  0     0  0
 25 30  1  0     0  0
 29 30  2  0     0  0
 31 35  1  0     0  0
 32 40  1  0     0  0
 33 36  1  0     0  0
 37 39  1  0     0  0
 38 40  1  0     0  0
 39 41  1  0     0  0
 39 42  1  0     0  0
M  END
> <standard_type>
pIC50

> <# Confs.>
25

> <canonical_smiles>
O=C(CN(C=C1)N=C1NC2=NC=NC3=C2C=C(OC)C(OCCCN(CC(C)C)CCO)=C3)NC4=C(F)C(F)=CC=C4

> <standard_relation>
=

> <Publication_ID>
nan

> <predicted_activity_value>
8.031517051446064

> <actual_activity_value>
8.096910013008056

> <Compound>
5

> <standard_units>
nM

> hash
13470637940307672993

$$$$
4
XXILIB    08252103493D 0   0.00000     0.00000

 42 45  0     1  0            999 V2000
   -9.7513    6.4501   -0.1634 F   0  0  0  0  0  1           0  0  0
   -8.8654    8.9830   -0.3610 F   0  0  0  0  0  1           0  0  0
    1.3663    0.0000    0.0000 O   0  0  0  0  0  2           0  0  0
   -0.2639    0.0061    2.4192 O   0  0  0  0  0  2           0  0  0
   -9.4868    4.3492    0.8677 O   0  0  0  0  0  2           0  0  0
    4.7581    0.3329    5.8006 O   0  0  0  0  0  2           0  0  0
   -8.1615    1.4634    0.4636 N   0  0  0  0  0  3           0  0  0
   -7.0027    1.1424   -0.1403 N   0  0  0  0  0  3           0  0  0
   -4.7418   -0.0038   -1.6757 N   0  0  0  0  0  3           0  0  0
   -2.5362    0.0737   -2.6131 N   0  0  0  0  0  3           0  0  0
   -5.0928   -0.1066    0.6806 N   0  0  0  0  0  3           0  0  0
   -8.1014    4.2548   -0.9972 N   0  0  0  0  0  3           0  0  0
    5.3801   -1.4743    2.5360 N   0  0  1  0  0  3           0  0  0
   -8.5275    6.6659   -0.6671 C   0  0  0  0  0  4           0  0  0
   -8.0769    7.9791   -0.7693 C   0  0  0  0  0  4           0  0  0
    0.0000    0.0000    0.0000 C   0  0  0  0  0  4           0  0  0
   -0.7791    0.0000    1.1539 C   0  0  0  0  0  4           0  0  0
   -3.8744    0.0569   -2.6953 C   0  0  0  0  0  4           0  0  0
   -6.3329    0.4399    0.7878 C   0  0  0  0  0  4           0  0  0
   -4.2136   -0.0675   -0.4284 C   0  0  0  0  0  4           0  0  0
   -2.0100    0.0319   -1.3826 C   0  0  0  0  0  4           0  0  0
   -8.2691    0.9886    1.7355 C   0  0  0  0  0  4           0  0  0
   -7.7159    5.6064   -1.0815 C   0  0  0  0  0  4           0  0  0
   -2.8104   -0.0323   -0.2230 C   0  0  0  0  0  4           0  0  0
   -6.8182    8.2629   -1.2864 C   0  0  0  0  0  4           0  0  0
   -0.6238    0.0488   -1.2495 C   0  0  0  0  0  4           0  0  0
   -2.1702   -0.0463    1.0418 C   0  0  0  0  0  4           0  0  0
   -7.0967    0.3162    1.9793 C   0  0  0  0  0  4           0  0  0
   -6.4481    5.8926   -1.6057 C   0  0  0  0  0  4           0  0  0
   -6.0029    7.2147   -1.7071 C   0  0  0  0  0  4           0  0  0
   -8.9554    3.7213   -0.0450 C   0  0  0  0  0  4           0  0  0
    1.9811   -1.1163    0.6445 C   0  0  0  0  0  4           0  0  0
    4.7300   -0.7881    4.9266 C   0  0  0  0  0  4           0  0  0
   -0.0394    1.2968    2.9809 C   0  0  0  0  0  4           0  0  0
   -9.1506    2.2392   -0.2505 C   0  0  0  0  0  4           0  0  0
    5.3332   -0.4243    3.5579 C   0  0  0  0  0  4           0  0  0
    6.1620   -2.6443    2.9297 C   0  0  0  0  0  4           0  0  0
    4.0789   -1.8019    1.9455 C   0  0  0  0  0  4           0  0  0
    7.6498   -2.4290    3.2605 C   0  0  1  0  0  4           0  0  0
    3.3202   -0.6747    1.2222 C   0  0  0  0  0  4           0  0  0
    8.3481   -3.7315    3.6562 C   0  0  0  0  0  4           0  0  0
    8.4030   -1.7503    2.1144 C   0  0  0  0  0  4           0  0  0
  1 14  1  0     0  0
  2 15  1  0     0  0
  3 16  1  0     0  0
  3 32  1  0     0  0
  4 17  1  0     0  0
  4 34  1  0     0  0
  5 31  2  0     0  0
  6 33  1  0     0  0
  7  8  1  0     0  0
  7 22  1  0     0  0
  7 35  1  0     0  0
  8 19  2  0     0  0
  9 18  1  0     0  0
  9 20  2  0     0  0
 10 18  2  0     0  0
 10 21  1  0     0  0
 11 19  1  0     0  0
 11 20  1  0     0  0
 12 23  1  0     0  0
 12 31  1  0     0  0
 13 36  1  0     0  0
 13 37  1  0     0  0
 13 38  1  0     0  0
 14 15  1  0     0  0
 14 23  2  0     0  0
 15 25  2  0     0  0
 16 17  1  0     0  0
 16 26  2  0     0  0
 17 27  2  0     0  0
 19 28  1  0     0  0
 20 24  1  0     0  0
 21 24  2  0     0  0
 21 26  1  0     0  0
 22 28  2  0     0  0
 23 29  1  0     0  0
 24 27  1  0     0  0
 25 30  1  0     0  0
 29 30  2  0     0  0
 31 35  1  0     0  0
 32 40  1  0     0  0
 33 36  1  0     0  0
 37 39  1  0     0  0
 38 40  1  0     0  0
 39 41  1  0     0  0
 39 42  1  0     0  0
M  END
> <standard_type>
pIC50

> <# Confs.>
25

> <canonical_smiles>
O=C(CN(C=C1)N=C1NC2=NC=NC3=C2C=C(OC)C(OCCCN(CC(C)C)CCO)=C3)NC4=C(F)C(F)=CC=C4

> <standard_relation>
=

> <Publication_ID>
nan

> <predicted_activity_value>
8.031517051446064

> <actual_activity_value>
8.096910013008056

> <Compound>
5

> <standard_units>
nM

> hash
13470637940307672993

$$$$
4
XXILIB    08252103493D 0   0.00000     0.00000

 42 45  0     1  0            999 V2000
   -9.7513    6.4501   -0.1634 F   0  0  0  0  0  1           0  0  0
   -8.8654    8.9830   -0.3610 F   0  0  0  0  0  1           0  0  0
    1.3663    0.0000    0.0000 O   0  0  0  0  0  2           0  0  0
   -0.2639    0.0061    2.4192 O   0  0  0  0  0  2           0  0  0
   -9.4868    4.3492    0.8677 O   0  0  0  0  0  2           0  0  0
   -0.6320   -6.2278   -0.2501 O   0  0  0  0  0  2           0  0  0
   -8.1615    1.4634    0.4636 N   0  0  0  0  0  3           0  0  0
   -7.0027    1.1424   -0.1403 N   0  0  0  0  0  3           0  0  0
   -4.7418   -0.0038   -1.6757 N   0  0  0  0  0  3           0  0  0
   -2.5362    0.0737   -2.6131 N   0  0  0  0  0  3           0  0  0
   -5.0928   -0.1066    0.6806 N   0  0  0  0  0  3           0  0  0
   -8.1014    4.2548   -0.9972 N   0  0  0  0  0  3           0  0  0
    2.1519   -4.1779    1.2854 N   0  0  1  0  0  3           0  0  0
   -8.5275    6.6659   -0.6671 C   0  0  0  0  0  4           0  0  0
   -8.0769    7.9791   -0.7693 C   0  0  0  0  0  4           0  0  0
    0.0000    0.0000    0.0000 C   0  0  0  0  0  4           0  0  0
   -0.7791    0.0000    1.1539 C   0  0  0  0  0  4           0  0  0
   -3.8744    0.0569   -2.6953 C   0  0  0  0  0  4           0  0  0
   -6.3329    0.4399    0.7878 C   0  0  0  0  0  4           0  0  0
   -4.2136   -0.0675   -0.4284 C   0  0  0  0  0  4           0  0  0
   -2.0100    0.0319   -1.3826 C   0  0  0  0  0  4           0  0  0
   -8.2691    0.9886    1.7355 C   0  0  0  0  0  4           0  0  0
   -7.7159    5.6064   -1.0815 C   0  0  0  0  0  4           0  0  0
   -2.8104   -0.0323   -0.2230 C   0  0  0  0  0  4           0  0  0
   -6.8182    8.2629   -1.2864 C   0  0  0  0  0  4           0  0  0
   -0.6238    0.0488   -1.2495 C   0  0  0  0  0  4           0  0  0
   -2.1702   -0.0463    1.0418 C   0  0  0  0  0  4           0  0  0
   -7.0967    0.3162    1.9793 C   0  0  0  0  0  4           0  0  0
   -6.4481    5.8926   -1.6057 C   0  0  0  0  0  4           0  0  0
   -6.0029    7.2147   -1.7071 C   0  0  0  0  0  4           0  0  0
   -8.9554    3.7213   -0.0450 C   0  0  0  0  0  4           0  0  0
    1.9811   -1.1163    0.6445 C   0  0  0  0  0  4           0  0  0
    0.7253   -5.8859   -0.0015 C   0  0  0  0  0  4           0  0  0
   -0.0394    1.2968    2.9809 C   0  0  0  0  0  4           0  0  0
   -9.1506    2.2392   -0.2505 C   0  0  0  0  0  4           0  0  0
    0.8153   -4.6623    0.9282 C   0  0  0  0  0  4           0  0  0
    2.9708   -5.1687    1.9803 C   0  0  0  0  0  4           0  0  0
    2.8534   -3.4840    0.2012 C   0  0  0  0  0  4           0  0  0
    2.4428   -5.7185    3.3176 C   0  0  1  0  0  4           0  0  0
    2.1929   -2.2219   -0.3824 C   0  0  0  0  0  4           0  0  0
    3.3943   -6.7443    3.9366 C   0  0  0  0  0  4           0  0  0
    2.1400   -4.6030    4.3203 C   0  0  0  0  0  4           0  0  0
  1 14  1  0     0  0
  2 15  1  0     0  0
  3 16  1  0     0  0
  3 32  1  0     0  0
  4 17  1  0     0  0
  4 34  1  0     0  0
  5 31  2  0     0  0
  6 33  1  0     0  0
  7  8  1  0     0  0
  7 22  1  0     0  0
  7 35  1  0     0  0
  8 19  2  0     0  0
  9 18  1  0     0  0
  9 20  2  0     0  0
 10 18  2  0     0  0
 10 21  1  0     0  0
 11 19  1  0     0  0
 11 20  1  0     0  0
 12 23  1  0     0  0
 12 31  1  0     0  0
 13 36  1  0     0  0
 13 37  1  0     0  0
 13 38  1  0     0  0
 14 15  1  0     0  0
 14 23  2  0     0  0
 15 25  2  0     0  0
 16 17  1  0     0  0
 16 26  2  0     0  0
 17 27  2  0     0  0
 19 28  1  0     0  0
 20 24  1  0     0  0
 21 24  2  0     0  0
 21 26  1  0     0  0
 22 28  2  0     0  0
 23 29  1  0     0  0
 24 27  1  0     0  0
 25 30  1  0     0  0
 29 30  2  0     0  0
 31 35  1  0     0  0
 32 40  1  0     0  0
 33 36  1  0     0  0
 37 39  1  0     0  0
 38 40  1  0     0  0
 39 41  1  0     0  0
 39 42  1  0     0  0
M  END
> <standard_type>
pIC50

> <# Confs.>
25

> <canonical_smiles>
O=C(CN(C=C1)N=C1NC2=NC=NC3=C2C=C(OC)C(OCCCN(CC(C)C)CCO)=C3)NC4=C(F)C(F)=CC=C4

> <standard_relation>
=

> <Publication_ID>
nan

> <predicted_activity_value>
8.031517051446064

> <actual_activity_value>
8.096910013008056

> <Compound>
5

> <standard_units>
nM

> hash
13470637940307672993

$$$$
5
XXILIB    08252103493D 0   0.00000     0.00000

 42 46  0     1  0            999 V2000
   -2.9839   -0.2052   -4.7445 O   0  0  0  0  0  2           0  0  0
   -0.3882   -0.2093   -4.9482 O   0  0  0  0  0  2           0  0  0
    7.7128    7.2896   -0.2510 O   0  0  0  0  0  2           0  0  0
    5.8931    3.7263    2.3814 O   0  0  0  0  0  2           0  0  0
  -11.1789    4.1704   -4.6304 O   0  0  0  0  0  2           0  0  0
    3.0970    1.5066    2.6067 N   0  0  0  0  0  3           0  0  0
    1.9189    1.1854    2.0532 N   0  0  0  0  0  3           0  0  0
   -0.6495   -0.0000    1.1904 N   0  0  0  0  0  3           0  0  0
   -2.7540   -0.0514    0.0452 N   0  0  0  0  0  3           0  0  0
    1.4152    0.0000    0.0000 N   0  0  0  0  0  3           0  0  0
    6.6341    2.5519    0.5172 N   0  0  0  0  0  3           0  0  0
   -7.2480    0.8891   -5.3880 N   0  0  1  0  0  3           0  0  0
   -2.2871   -0.1609   -3.5701 C   0  0  0  0  0  4           0  0  0
   -0.8932   -0.1635   -3.6794 C   0  0  0  0  0  4           0  0  0
    7.6750    5.9645   -0.5822 C   0  0  0  0  0  4           0  0  0
   -1.9881   -0.0196    1.1450 C   0  0  0  0  0  4           0  0  0
    2.2520    0.5354    0.9274 C   0  0  0  0  0  4           0  0  0
    0.0000    0.0000    0.0000 C   0  0  0  0  0  4           0  0  0
   -2.1162   -0.0763   -1.1322 C   0  0  0  0  0  4           0  0  0
    4.1831    1.0971    1.8877 C   0  0  0  0  0  4           0  0  0
    7.1612    3.6142   -0.2409 C   0  0  0  0  0  4           0  0  0
   -0.7114   -0.0618   -1.2270 C   0  0  0  0  0  4           0  0  0
   -2.8756   -0.1227   -2.2995 C   0  0  0  0  0  4           0  0  0
    7.1422    4.9423    0.2132 C   0  0  0  0  0  4           0  0  0
   -0.1176   -0.1149   -2.5151 C   0  0  0  0  0  4           0  0  0
    8.2316    5.6497   -1.8260 C   0  0  0  0  0  4           0  0  0
    3.6628    0.4549    0.7871 C   0  0  0  0  0  4           0  0  0
    7.7187    3.3144   -1.4883 C   0  0  0  0  0  4           0  0  0
    8.2522    4.3309   -2.2775 C   0  0  0  0  0  4           0  0  0
    6.0486    2.6726    1.7656 C   0  0  0  0  0  4           0  0  0
   -4.4054   -0.2017   -4.6110 C   0  0  0  0  0  4           0  0  0
   -9.7675    4.3377   -4.6575 C   0  0  0  0  0  4           0  0  0
    1.0348   -0.2111   -5.0380 C   0  0  0  0  0  4           0  0  0
    7.1529    7.6168    1.0188 C   0  0  0  0  0  4           0  0  0
   -6.5650   -0.2553   -5.9953 C   0  0  0  0  0  4           0  0  0
   -6.8960    2.1472   -6.0656 C   0  0  0  0  0  4           0  0  0
   -8.7034    0.6745   -5.4099 C   0  0  0  0  0  4           0  0  0
    5.5780    1.3494    2.3253 C   0  0  0  0  0  4           0  0  0
   -9.1063    3.1720   -5.3796 C   0  0  1  0  0  4           0  0  0
   -5.0297   -0.2538   -5.9989 C   0  0  0  0  0  4           0  0  0
   -7.5853    3.3466   -5.4121 C   0  0  0  0  0  4           0  0  0
   -9.4528    1.8244   -4.7333 C   0  0  0  0  0  4           0  0  0
  1 13  1  0     0  0
  1 31  1  0     0  0
  2 14  1  0     0  0
  2 33  1  0     0  0
  3 15  1  0     0  0
  3 34  1  0     0  0
  4 30  2  0     0  0
  5 32  1  0     0  0
  6  7  1  0     0  0
  6 20  1  0     0  0
  7 17  2  0     0  0
  8 16  1  0     0  0
  8 18  2  0     0  0
  9 16  2  0     0  0
  9 19  1  0     0  0
 10 17  1  0     0  0
 10 18  1  0     0  0
 11 21  1  0     0  0
 11 30  1  0     0  0
 12 35  1  0     0  0
 12 36  1  0     0  0
 12 37  1  0     0  0
 13 14  1  0     0  0
 13 23  2  0     0  0
 14 25  2  0     0  0
 15 24  2  0     0  0
 15 26  1  0     0  0
 17 27  1  0     0  0
 18 22  1  0     0  0
 19 22  2  0     0  0
 19 23  1  0     0  0
 20 27  2  0     0  0
 20 38  1  0     0  0
 21 24  1  0     0  0
 21 28  2  0     0  0
 22 25  1  0     0  0
 26 29  2  0     0  0
 28 29  1  0     0  0
 30 38  1  0     0  0
 31 40  1  0     0  0
 32 39  1  0     0  0
 35 40  1  0     0  0
 36 41  1  0     0  0
 37 42  1  0     0  0
 39 41  1  0     0  0
 39 42  1  0     0  0
M  END
> <standard_type>
pIC50

> <# Confs.>
25

> <canonical_smiles>
O=C(CC1=CC(NC2=NC=NC3=C2C=C(OC)C(OCCCN4CCC(CO)CC4)=C3)=NN1)NC5=CC=CC(OC)=C5

> <standard_relation>
=

> <Publication_ID>
nan

> <predicted_activity_value>
8.065501548756432

> <actual_activity_value>
8.045757490560675

> <Compound>
6

> <standard_units>
nM

> hash
17619100297895759804

$$$$
5
XXILIB    08252103493D 0   0.00000     0.00000

 42 46  0     1  0            999 V2000
   -2.9839   -0.2052   -4.7445 O   0  0  0  0  0  2           0  0  0
   -0.3882   -0.2093   -4.9482 O   0  0  0  0  0  2           0  0  0
    7.7446   -3.8710    6.1378 O   0  0  0  0  0  2           0  0  0
    5.8984    0.1932    4.4020 O   0  0  0  0  0  2           0  0  0
  -11.1789    4.1704   -4.6304 O   0  0  0  0  0  2           0  0  0
    3.0970    1.5066    2.6067 N   0  0  0  0  0  3           0  0  0
    1.9189    1.1854    2.0532 N   0  0  0  0  0  3           0  0  0
   -0.6495   -0.0000    1.1904 N   0  0  0  0  0  3           0  0  0
   -2.7540   -0.0514    0.0452 N   0  0  0  0  0  3           0  0  0
    1.4152    0.0000    0.0000 N   0  0  0  0  0  3           0  0  0
    6.6716   -0.8000    2.4476 N   0  0  0  0  0  3           0  0  0
   -7.2480    0.8891   -5.3880 N   0  0  1  0  0  3           0  0  0
   -2.2871   -0.1609   -3.5701 C   0  0  0  0  0  4           0  0  0
   -0.8932   -0.1635   -3.6794 C   0  0  0  0  0  4           0  0  0
    7.7229   -3.4749    4.8302 C   0  0  0  0  0  4           0  0  0
   -1.9881   -0.0196    1.1450 C   0  0  0  0  0  4           0  0  0
    2.2520    0.5354    0.9274 C   0  0  0  0  0  4           0  0  0
    0.0000    0.0000    0.0000 C   0  0  0  0  0  4           0  0  0
   -2.1162   -0.0763   -1.1322 C   0  0  0  0  0  4           0  0  0
    4.1831    1.0971    1.8877 C   0  0  0  0  0  4           0  0  0
    7.2097   -1.9869    2.9791 C   0  0  0  0  0  4           0  0  0
   -0.7114   -0.0618   -1.2270 C   0  0  0  0  0  4           0  0  0
   -2.8756   -0.1227   -2.2995 C   0  0  0  0  0  4           0  0  0
    7.1679   -2.2819    4.3508 C   0  0  0  0  0  4           0  0  0
   -0.1176   -0.1149   -2.5151 C   0  0  0  0  0  4           0  0  0
    8.3107   -4.3708    3.9313 C   0  0  0  0  0  4           0  0  0
    3.6628    0.4549    0.7871 C   0  0  0  0  0  4           0  0  0
    7.8032   -2.8910    2.0919 C   0  0  0  0  0  4           0  0  0
    8.3517   -4.0796    2.5686 C   0  0  0  0  0  4           0  0  0
    6.0523    0.1971    3.1813 C   0  0  0  0  0  4           0  0  0
   -4.4054   -0.2017   -4.6110 C   0  0  0  0  0  4           0  0  0
   -9.7675    4.3377   -4.6575 C   0  0  0  0  0  4           0  0  0
    1.0348   -0.2111   -5.0380 C   0  0  0  0  0  4           0  0  0
    7.1412   -2.9652    7.0590 C   0  0  0  0  0  4           0  0  0
   -6.5650   -0.2553   -5.9953 C   0  0  0  0  0  4           0  0  0
   -6.8960    2.1472   -6.0656 C   0  0  0  0  0  4           0  0  0
   -8.7034    0.6745   -5.4099 C   0  0  0  0  0  4           0  0  0
    5.5780    1.3494    2.3253 C   0  0  0  0  0  4           0  0  0
   -9.1063    3.1720   -5.3796 C   0  0  1  0  0  4           0  0  0
   -5.0297   -0.2538   -5.9989 C   0  0  0  0  0  4           0  0  0
   -7.5853    3.3466   -5.4121 C   0  0  0  0  0  4           0  0  0
   -9.4528    1.8244   -4.7333 C   0  0  0  0  0  4           0  0  0
  1 13  1  0     0  0
  1 31  1  0     0  0
  2 14  1  0     0  0
  2 33  1  0     0  0
  3 15  1  0     0  0
  3 34  1  0     0  0
  4 30  2  0     0  0
  5 32  1  0     0  0
  6  7  1  0     0  0
  6 20  1  0     0  0
  7 17  2  0     0  0
  8 16  1  0     0  0
  8 18  2  0     0  0
  9 16  2  0     0  0
  9 19  1  0     0  0
 10 17  1  0     0  0
 10 18  1  0     0  0
 11 21  1  0     0  0
 11 30  1  0     0  0
 12 35  1  0     0  0
 12 36  1  0     0  0
 12 37  1  0     0  0
 13 14  1  0     0  0
 13 23  2  0     0  0
 14 25  2  0     0  0
 15 24  2  0     0  0
 15 26  1  0     0  0
 17 27  1  0     0  0
 18 22  1  0     0  0
 19 22  2  0     0  0
 19 23  1  0     0  0
 20 27  2  0     0  0
 20 38  1  0     0  0
 21 24  1  0     0  0
 21 28  2  0     0  0
 22 25  1  0     0  0
 26 29  2  0     0  0
 28 29  1  0     0  0
 30 38  1  0     0  0
 31 40  1  0     0  0
 32 39  1  0     0  0
 35 40  1  0     0  0
 36 41  1  0     0  0
 37 42  1  0     0  0
 39 41  1  0     0  0
 39 42  1  0     0  0
M  END
> <standard_type>
pIC50

> <# Confs.>
25

> <canonical_smiles>
O=C(CC1=CC(NC2=NC=NC3=C2C=C(OC)C(OCCCN4CCC(CO)CC4)=C3)=NN1)NC5=CC=CC(OC)=C5

> <standard_relation>
=

> <Publication_ID>
nan

> <predicted_activity_value>
8.065501548756432

> <actual_activity_value>
8.045757490560675

> <Compound>
6

> <standard_units>
nM

> hash
17619100297895759804

$$$$
5
XXILIB    08252103493D 0   0.00000     0.00000

 42 46  0     1  0            999 V2000
   -2.9839   -0.2052   -4.7445 O   0  0  0  0  0  2           0  0  0
   -0.3882   -0.2093   -4.9482 O   0  0  0  0  0  2           0  0  0
    7.7128    7.2896   -0.2510 O   0  0  0  0  0  2           0  0  0
    5.8931    3.7263    2.3814 O   0  0  0  0  0  2           0  0  0
   -8.2963    7.3887   -4.0907 O   0  0  0  0  0  2           0  0  0
    3.0970    1.5066    2.6067 N   0  0  0  0  0  3           0  0  0
    1.9189    1.1854    2.0532 N   0  0  0  0  0  3           0  0  0
   -0.6495    0.0000    1.1904 N   0  0  0  0  0  3           0  0  0
   -2.7540   -0.0514    0.0452 N   0  0  0  0  0  3           0  0  0
    1.4152    0.0000    0.0000 N   0  0  0  0  0  3           0  0  0
    6.6341    2.5519    0.5172 N   0  0  0  0  0  3           0  0  0
   -6.1311    2.8716   -5.3946 N   0  0  1  0  0  3           0  0  0
   -2.2871   -0.1609   -3.5701 C   0  0  0  0  0  4           0  0  0
   -0.8932   -0.1635   -3.6794 C   0  0  0  0  0  4           0  0  0
    7.6750    5.9645   -0.5822 C   0  0  0  0  0  4           0  0  0
   -1.9881   -0.0196    1.1450 C   0  0  0  0  0  4           0  0  0
    2.2520    0.5354    0.9274 C   0  0  0  0  0  4           0  0  0
    0.0000    0.0000    0.0000 C   0  0  0  0  0  4           0  0  0
   -2.1162   -0.0763   -1.1322 C   0  0  0  0  0  4           0  0  0
    4.1831    1.0971    1.8877 C   0  0  0  0  0  4           0  0  0
    7.1612    3.6142   -0.2409 C   0  0  0  0  0  4           0  0  0
   -0.7114   -0.0618   -1.2270 C   0  0  0  0  0  4           0  0  0
   -2.8756   -0.1227   -2.2995 C   0  0  0  0  0  4           0  0  0
    7.1422    4.9423    0.2132 C   0  0  0  0  0  4           0  0  0
   -0.1176   -0.1149   -2.5151 C   0  0  0  0  0  4           0  0  0
    8.2316    5.6497   -1.8260 C   0  0  0  0  0  4           0  0  0
    3.6628    0.4549    0.7871 C   0  0  0  0  0  4           0  0  0
    7.7187    3.3144   -1.4883 C   0  0  0  0  0  4           0  0  0
    8.2522    4.3309   -2.2775 C   0  0  0  0  0  4           0  0  0
    6.0486    2.6726    1.7656 C   0  0  0  0  0  4           0  0  0
   -4.2574    0.4402   -4.7230 C   0  0  0  0  0  4           0  0  0
   -6.9774    6.8735   -3.9653 C   0  0  0  0  0  4           0  0  0
    1.0348   -0.2111   -5.0380 C   0  0  0  0  0  4           0  0  0
    7.1529    7.6168    1.0188 C   0  0  0  0  0  4           0  0  0
   -5.9153    1.6890   -6.2312 C   0  0  0  0  0  4           0  0  0
   -5.1427    3.9228   -5.6840 C   0  0  0  0  0  4           0  0  0
   -7.5001    3.3768   -5.5831 C   0  0  0  0  0  4           0  0  0
    5.5780    1.3494    2.3253 C   0  0  0  0  0  4           0  0  0
   -6.7682    5.7059   -4.9195 C   0  0  1  0  0  4           0  0  0
   -4.5645    0.9682   -6.1178 C   0  0  0  0  0  4           0  0  0
   -5.3488    5.1464   -4.7889 C   0  0  0  0  0  4           0  0  0
   -7.7850    4.5814   -4.6835 C   0  0  0  0  0  4           0  0  0
  1 13  1  0     0  0
  1 31  1  0     0  0
  2 14  1  0     0  0
  2 33  1  0     0  0
  3 15  1  0     0  0
  3 34  1  0     0  0
  4 30  2  0     0  0
  5 32  1  0     0  0
  6  7  1  0     0  0
  6 20  1  0     0  0
  7 17  2  0     0  0
  8 16  1  0     0  0
  8 18  2  0     0  0
  9 16  2  0     0  0
  9 19  1  0     0  0
 10 17  1  0     0  0
 10 18  1  0     0  0
 11 21  1  0     0  0
 11 30  1  0     0  0
 12 35  1  0     0  0
 12 36  1  0     0  0
 12 37  1  0     0  0
 13 14  1  0     0  0
 13 23  2  0     0  0
 14 25  2  0     0  0
 15 24  2  0     0  0
 15 26  1  0     0  0
 17 27  1  0     0  0
 18 22  1  0     0  0
 19 22  2  0     0  0
 19 23  1  0     0  0
 20 27  2  0     0  0
 20 38  1  0     0  0
 21 24  1  0     0  0
 21 28  2  0     0  0
 22 25  1  0     0  0
 26 29  2  0     0  0
 28 29  1  0     0  0
 30 38  1  0     0  0
 31 40  1  0     0  0
 32 39  1  0     0  0
 35 40  1  0     0  0
 36 41  1  0     0  0
 37 42  1  0     0  0
 39 41  1  0     0  0
 39 42  1  0     0  0
M  END
> <standard_type>
pIC50

> <# Confs.>
25

> <canonical_smiles>
O=C(CC1=CC(NC2=NC=NC3=C2C=C(OC)C(OCCCN4CCC(CO)CC4)=C3)=NN1)NC5=CC=CC(OC)=C5

> <standard_relation>
=

> <Publication_ID>
nan

> <predicted_activity_value>
8.065501548756432

> <actual_activity_value>
8.045757490560675

> <Compound>
6

> <standard_units>
nM

> hash
17619100297895759804

$$$$
5
XXILIB    08252103493D 0   0.00000     0.00000

 42 46  0     1  0            999 V2000
   -2.9839   -0.2052   -4.7445 O   0  0  0  0  0  2           0  0  0
   -0.3882   -0.2093   -4.9482 O   0  0  0  0  0  2           0  0  0
    7.7128    3.8622    6.1875 O   0  0  0  0  0  2           0  0  0
    5.8931   -0.1992    4.4178 O   0  0  0  0  0  2           0  0  0
  -11.1789    4.1704   -4.6304 O   0  0  0  0  0  2           0  0  0
    3.0970   -1.5042    2.6081 N   0  0  0  0  0  3           0  0  0
    1.9189   -1.1854    2.0532 N   0  0  0  0  0  3           0  0  0
   -0.6495   -0.0000    1.1904 N   0  0  0  0  0  3           0  0  0
   -2.7540   -0.0514    0.0452 N   0  0  0  0  0  3           0  0  0
    1.4152    0.0000    0.0000 N   0  0  0  0  0  3           0  0  0
    6.6341    0.8281    2.4686 N   0  0  0  0  0  3           0  0  0
   -7.2480    0.8891   -5.3880 N   0  0  1  0  0  3           0  0  0
   -2.2871   -0.1609   -3.5701 C   0  0  0  0  0  4           0  0  0
   -0.8932   -0.1635   -3.6794 C   0  0  0  0  0  4           0  0  0
    7.6750    3.4864    4.8743 C   0  0  0  0  0  4           0  0  0
   -1.9881   -0.0196    1.1450 C   0  0  0  0  0  4           0  0  0
    2.2520   -0.5354    0.9274 C   0  0  0  0  0  4           0  0  0
    0.0000    0.0000    0.0000 C   0  0  0  0  0  4           0  0  0
   -2.1162   -0.0763   -1.1322 C   0  0  0  0  0  4           0  0  0
    4.1831   -1.0863    1.8939 C   0  0  0  0  0  4           0  0  0
    7.1612    2.0157    3.0096 C   0  0  0  0  0  4           0  0  0
   -0.7114   -0.0618   -1.2270 C   0  0  0  0  0  4           0  0  0
   -2.8756   -0.1227   -2.2995 C   0  0  0  0  0  4           0  0  0
    7.1422    2.2865    4.3868 C   0  0  0  0  0  4           0  0  0
   -0.1176   -0.1149   -2.5151 C   0  0  0  0  0  4           0  0  0
    8.2316    4.4062    3.9798 C   0  0  0  0  0  4           0  0  0
    3.6628   -0.4542    0.7875 C   0  0  0  0  0  4           0  0  0
    7.7187    2.9461    2.1262 C   0  0  0  0  0  4           0  0  0
    8.2522    4.1378    2.6120 C   0  0  0  0  0  4           0  0  0
    6.0486   -0.1927    3.1973 C   0  0  0  0  0  4           0  0  0
   -4.4054   -0.2017   -4.6110 C   0  0  0  0  0  4           0  0  0
   -9.7675    4.3377   -4.6575 C   0  0  0  0  0  4           0  0  0
    1.0348   -0.2111   -5.0380 C   0  0  0  0  0  4           0  0  0
    7.1529    2.9261    7.1057 C   0  0  0  0  0  4           0  0  0
   -6.5650   -0.2553   -5.9953 C   0  0  0  0  0  4           0  0  0
   -6.8960    2.1472   -6.0656 C   0  0  0  0  0  4           0  0  0
   -8.7034    0.6745   -5.4099 C   0  0  0  0  0  4           0  0  0
    5.5780   -1.3390    2.3312 C   0  0  0  0  0  4           0  0  0
   -9.1063    3.1720   -5.3796 C   0  0  1  0  0  4           0  0  0
   -5.0297   -0.2538   -5.9989 C   0  0  0  0  0  4           0  0  0
   -7.5853    3.3466   -5.4121 C   0  0  0  0  0  4           0  0  0
   -9.4528    1.8244   -4.7333 C   0  0  0  0  0  4           0  0  0
  1 13  1  0     0  0
  1 31  1  0     0  0
  2 14  1  0     0  0
  2 33  1  0     0  0
  3 15  1  0     0  0
  3 34  1  0     0  0
  4 30  2  0     0  0
  5 32  1  0     0  0
  6  7  1  0     0  0
  6 20  1  0     0  0
  7 17  2  0     0  0
  8 16  1  0     0  0
  8 18  2  0     0  0
  9 16  2  0     0  0
  9 19  1  0     0  0
 10 17  1  0     0  0
 10 18  1  0     0  0
 11 21  1  0     0  0
 11 30  1  0     0  0
 12 35  1  0     0  0
 12 36  1  0     0  0
 12 37  1  0     0  0
 13 14  1  0     0  0
 13 23  2  0     0  0
 14 25  2  0     0  0
 15 24  2  0     0  0
 15 26  1  0     0  0
 17 27  1  0     0  0
 18 22  1  0     0  0
 19 22  2  0     0  0
 19 23  1  0     0  0
 20 27  2  0     0  0
 20 38  1  0     0  0
 21 24  1  0     0  0
 21 28  2  0     0  0
 22 25  1  0     0  0
 26 29  2  0     0  0
 28 29  1  0     0  0
 30 38  1  0     0  0
 31 40  1  0     0  0
 32 39  1  0     0  0
 35 40  1  0     0  0
 36 41  1  0     0  0
 37 42  1  0     0  0
 39 41  1  0     0  0
 39 42  1  0     0  0
M  END
> <standard_type>
pIC50

> <# Confs.>
25

> <canonical_smiles>
O=C(CC1=CC(NC2=NC=NC3=C2C=C(OC)C(OCCCN4CCC(CO)CC4)=C3)=NN1)NC5=CC=CC(OC)=C5

> <standard_relation>
=

> <Publication_ID>
nan

> <predicted_activity_value>
8.065501548756432

> <actual_activity_value>
8.045757490560675

> <Compound>
6

> <standard_units>
nM

> hash
17619100297895759804

$$$$
5
XXILIB    08252103493D 0   0.00000     0.00000

 42 46  0     1  0            999 V2000
   -2.9839   -0.2052   -4.7445 O   0  0  0  0  0  2           0  0  0
   -0.3882   -0.2093   -4.9482 O   0  0  0  0  0  2           0  0  0
    7.7446   -7.2510   -0.2834 O   0  0  0  0  0  2           0  0  0
    5.8984   -3.7156    2.3683 O   0  0  0  0  0  2           0  0  0
  -11.1789    4.1704   -4.6304 O   0  0  0  0  0  2           0  0  0
    3.0970   -1.5042    2.6081 N   0  0  0  0  0  3           0  0  0
    1.9189   -1.1854    2.0532 N   0  0  0  0  0  3           0  0  0
   -0.6495   -0.0000    1.1904 N   0  0  0  0  0  3           0  0  0
   -2.7540   -0.0514    0.0452 N   0  0  0  0  0  3           0  0  0
    1.4152   -0.0000    0.0000 N   0  0  0  0  0  3           0  0  0
    6.6716   -2.5197    0.5310 N   0  0  0  0  0  3           0  0  0
   -7.2480    0.8891   -5.3880 N   0  0  1  0  0  3           0  0  0
   -2.2871   -0.1609   -3.5701 C   0  0  0  0  0  4           0  0  0
   -0.8932   -0.1635   -3.6794 C   0  0  0  0  0  4           0  0  0
    7.7229   -5.9206   -0.5943 C   0  0  0  0  0  4           0  0  0
   -1.9881   -0.0196    1.1450 C   0  0  0  0  0  4           0  0  0
    2.2520   -0.5354    0.9274 C   0  0  0  0  0  4           0  0  0
    0.0000    0.0000    0.0000 C   0  0  0  0  0  4           0  0  0
   -2.1162   -0.0763   -1.1322 C   0  0  0  0  0  4           0  0  0
    4.1831   -1.0863    1.8939 C   0  0  0  0  0  4           0  0  0
    7.2097   -3.5734   -0.2312 C   0  0  0  0  0  4           0  0  0
   -0.7114   -0.0618   -1.2270 C   0  0  0  0  0  4           0  0  0
   -2.8756   -0.1227   -2.2995 C   0  0  0  0  0  4           0  0  0
    7.1679   -4.9089    0.1992 C   0  0  0  0  0  4           0  0  0
   -0.1176   -0.1149   -2.5151 C   0  0  0  0  0  4           0  0  0
    8.3107   -5.5900   -1.8196 C   0  0  0  0  0  4           0  0  0
    3.6628   -0.4542    0.7875 C   0  0  0  0  0  4           0  0  0
    7.8032   -3.2571   -1.4577 C   0  0  0  0  0  4           0  0  0
    8.3517   -4.2642   -2.2487 C   0  0  0  0  0  4           0  0  0
    6.0523   -2.6566    1.7613 C   0  0  0  0  0  4           0  0  0
   -4.4054   -0.2017   -4.6110 C   0  0  0  0  0  4           0  0  0
   -9.7675    4.3377   -4.6575 C   0  0  0  0  0  4           0  0  0
    1.0348   -0.2111   -5.0380 C   0  0  0  0  0  4           0  0  0
    7.1412   -7.5959    0.9615 C   0  0  0  0  0  4           0  0  0
   -6.5650   -0.2553   -5.9953 C   0  0  0  0  0  4           0  0  0
   -6.8960    2.1472   -6.0656 C   0  0  0  0  0  4           0  0  0
   -8.7034    0.6745   -5.4099 C   0  0  0  0  0  4           0  0  0
    5.5780   -1.3390    2.3312 C   0  0  0  0  0  4           0  0  0
   -9.1063    3.1720   -5.3796 C   0  0  1  0  0  4           0  0  0
   -5.0297   -0.2538   -5.9989 C   0  0  0  0  0  4           0  0  0
   -7.5853    3.3466   -5.4121 C   0  0  0  0  0  4           0  0  0
   -9.4528    1.8244   -4.7333 C   0  0  0  0  0  4           0  0  0
  1 13  1  0     0  0
  1 31  1  0     0  0
  2 14  1  0     0  0
  2 33  1  0     0  0
  3 15  1  0     0  0
  3 34  1  0     0  0
  4 30  2  0     0  0
  5 32  1  0     0  0
  6  7  1  0     0  0
  6 20  1  0     0  0
  7 17  2  0     0  0
  8 16  1  0     0  0
  8 18  2  0     0  0
  9 16  2  0     0  0
  9 19  1  0     0  0
 10 17  1  0     0  0
 10 18  1  0     0  0
 11 21  1  0     0  0
 11 30  1  0     0  0
 12 35  1  0     0  0
 12 36  1  0     0  0
 12 37  1  0     0  0
 13 14  1  0     0  0
 13 23  2  0     0  0
 14 25  2  0     0  0
 15 24  2  0     0  0
 15 26  1  0     0  0
 17 27  1  0     0  0
 18 22  1  0     0  0
 19 22  2  0     0  0
 19 23  1  0     0  0
 20 27  2  0     0  0
 20 38  1  0     0  0
 21 24  1  0     0  0
 21 28  2  0     0  0
 22 25  1  0     0  0
 26 29  2  0     0  0
 28 29  1  0     0  0
 30 38  1  0     0  0
 31 40  1  0     0  0
 32 39  1  0     0  0
 35 40  1  0     0  0
 36 41  1  0     0  0
 37 42  1  0     0  0
 39 41  1  0     0  0
 39 42  1  0     0  0
M  END
> <standard_type>
pIC50

> <# Confs.>
25

> <canonical_smiles>
O=C(CC1=CC(NC2=NC=NC3=C2C=C(OC)C(OCCCN4CCC(CO)CC4)=C3)=NN1)NC5=CC=CC(OC)=C5

> <standard_relation>
=

> <Publication_ID>
nan

> <predicted_activity_value>
8.065501548756432

> <actual_activity_value>
8.045757490560675

> <Compound>
6

> <standard_units>
nM

> hash
17619100297895759804

$$$$
5
XXILIB    08252103493D 0   0.00000     0.00000

 42 46  0     1  0            999 V2000
   -2.9839   -0.2052   -4.7445 O   0  0  0  0  0  2           0  0  0
   -0.3882   -0.2093   -4.9482 O   0  0  0  0  0  2           0  0  0
    7.7390    7.2874   -0.2342 O   0  0  0  0  0  2           0  0  0
    5.4763    3.7279    2.0349 O   0  0  0  0  0  2           0  0  0
   -9.4729    5.5627   -5.3158 O   0  0  0  0  0  2           0  0  0
    3.0970    1.5066    2.6067 N   0  0  0  0  0  3           0  0  0
    1.9189    1.1854    2.0532 N   0  0  0  0  0  3           0  0  0
   -0.6495   -0.0000    1.1904 N   0  0  0  0  0  3           0  0  0
   -2.7540   -0.0514    0.0452 N   0  0  0  0  0  3           0  0  0
    1.4152    0.0000    0.0000 N   0  0  0  0  0  3           0  0  0
    7.1468    2.5454    0.9327 N   0  0  0  0  0  3           0  0  0
   -7.2480    0.8891   -5.3880 N   0  0  1  0  0  3           0  0  0
   -2.2871   -0.1609   -3.5701 C   0  0  0  0  0  4           0  0  0
   -0.8932   -0.1635   -3.6794 C   0  0  0  0  0  4           0  0  0
    8.0527    5.9583   -0.2793 C   0  0  0  0  0  4           0  0  0
   -1.9881   -0.0196    1.1450 C   0  0  0  0  0  4           0  0  0
    2.2520    0.5354    0.9274 C   0  0  0  0  0  4           0  0  0
    0.0000    0.0000    0.0000 C   0  0  0  0  0  4           0  0  0
   -2.1162   -0.0763   -1.1322 C   0  0  0  0  0  4           0  0  0
    4.1831    1.0971    1.8877 C   0  0  0  0  0  4           0  0  0
    7.7957    3.6061    0.2734 C   0  0  0  0  0  4           0  0  0
   -0.7114   -0.0618   -1.2270 C   0  0  0  0  0  4           0  0  0
   -2.8756   -0.1227   -2.2995 C   0  0  0  0  0  4           0  0  0
    7.3759    4.9393    0.4027 C   0  0  0  0  0  4           0  0  0
   -0.1176   -0.1149   -2.5151 C   0  0  0  0  0  4           0  0  0
    9.1523    5.6371   -1.0817 C   0  0  0  0  0  4           0  0  0
    3.6628    0.4549    0.7871 C   0  0  0  0  0  4           0  0  0
    8.8954    3.2993   -0.5348 C   0  0  0  0  0  4           0  0  0
    9.5709    4.3136   -1.2098 C   0  0  0  0  0  4           0  0  0
    6.0486    2.6726    1.7656 C   0  0  0  0  0  4           0  0  0
   -4.4054   -0.2017   -4.6110 C   0  0  0  0  0  4           0  0  0
   -9.7675    4.3377   -4.6575 C   0  0  0  0  0  4           0  0  0
    1.0348   -0.2111   -5.0380 C   0  0  0  0  0  4           0  0  0
    6.6229    7.6227    0.5872 C   0  0  0  0  0  4           0  0  0
   -6.5650   -0.2553   -5.9953 C   0  0  0  0  0  4           0  0  0
   -6.8960    2.1472   -6.0656 C   0  0  0  0  0  4           0  0  0
   -8.7034    0.6745   -5.4099 C   0  0  0  0  0  4           0  0  0
    5.5780    1.3494    2.3253 C   0  0  0  0  0  4           0  0  0
   -9.1063    3.1720   -5.3796 C   0  0  1  0  0  4           0  0  0
   -5.0297   -0.2538   -5.9989 C   0  0  0  0  0  4           0  0  0
   -7.5853    3.3466   -5.4121 C   0  0  0  0  0  4           0  0  0
   -9.4528    1.8244   -4.7333 C   0  0  0  0  0  4           0  0  0
  1 13  1  0     0  0
  1 31  1  0     0  0
  2 14  1  0     0  0
  2 33  1  0     0  0
  3 15  1  0     0  0
  3 34  1  0     0  0
  4 30  2  0     0  0
  5 32  1  0     0  0
  6  7  1  0     0  0
  6 20  1  0     0  0
  7 17  2  0     0  0
  8 16  1  0     0  0
  8 18  2  0     0  0
  9 16  2  0     0  0
  9 19  1  0     0  0
 10 17  1  0     0  0
 10 18  1  0     0  0
 11 21  1  0     0  0
 11 30  1  0     0  0
 12 35  1  0     0  0
 12 36  1  0     0  0
 12 37  1  0     0  0
 13 14  1  0     0  0
 13 23  2  0     0  0
 14 25  2  0     0  0
 15 24  2  0     0  0
 15 26  1  0     0  0
 17 27  1  0     0  0
 18 22  1  0     0  0
 19 22  2  0     0  0
 19 23  1  0     0  0
 20 27  2  0     0  0
 20 38  1  0     0  0
 21 24  1  0     0  0
 21 28  2  0     0  0
 22 25  1  0     0  0
 26 29  2  0     0  0
 28 29  1  0     0  0
 30 38  1  0     0  0
 31 40  1  0     0  0
 32 39  1  0     0  0
 35 40  1  0     0  0
 36 41  1  0     0  0
 37 42  1  0     0  0
 39 41  1  0     0  0
 39 42  1  0     0  0
M  END
> <standard_type>
pIC50

> <# Confs.>
25

> <canonical_smiles>
O=C(CC1=CC(NC2=NC=NC3=C2C=C(OC)C(OCCCN4CCC(CO)CC4)=C3)=NN1)NC5=CC=CC(OC)=C5

> <standard_relation>
=

> <Publication_ID>
nan

> <predicted_activity_value>
8.065501548756432

> <actual_activity_value>
8.045757490560675

> <Compound>
6

> <standard_units>
nM

> hash
17619100297895759804

$$$$
5
XXILIB    08252103493D 0   0.00000     0.00000

 42 46  0     1  0            999 V2000
   -2.9839   -0.2052   -4.7445 O   0  0  0  0  0  2           0  0  0
   -0.3882   -0.2093   -4.9482 O   0  0  0  0  0  2           0  0  0
    7.7128    7.2896   -0.2510 O   0  0  0  0  0  2           0  0  0
    5.8931    3.7263    2.3814 O   0  0  0  0  0  2           0  0  0
  -12.1738   -0.3348   -6.1031 O   0  0  0  0  0  2           0  0  0
    3.0970    1.5066    2.6067 N   0  0  0  0  0  3           0  0  0
    1.9189    1.1854    2.0532 N   0  0  0  0  0  3           0  0  0
   -0.6495   -0.0000    1.1904 N   0  0  0  0  0  3           0  0  0
   -2.7540   -0.0514    0.0452 N   0  0  0  0  0  3           0  0  0
    1.4152    0.0000    0.0000 N   0  0  0  0  0  3           0  0  0
    6.6341    2.5519    0.5172 N   0  0  0  0  0  3           0  0  0
   -7.1225   -1.4299   -5.8244 N   0  0  1  0  0  3           0  0  0
   -2.2871   -0.1609   -3.5701 C   0  0  0  0  0  4           0  0  0
   -0.8932   -0.1635   -3.6794 C   0  0  0  0  0  4           0  0  0
    7.6750    5.9645   -0.5822 C   0  0  0  0  0  4           0  0  0
   -1.9881   -0.0196    1.1450 C   0  0  0  0  0  4           0  0  0
    2.2520    0.5354    0.9274 C   0  0  0  0  0  4           0  0  0
    0.0000    0.0000    0.0000 C   0  0  0  0  0  4           0  0  0
   -2.1162   -0.0763   -1.1322 C   0  0  0  0  0  4           0  0  0
    4.1831    1.0971    1.8877 C   0  0  0  0  0  4           0  0  0
    7.1612    3.6142   -0.2409 C   0  0  0  0  0  4           0  0  0
   -0.7114   -0.0618   -1.2270 C   0  0  0  0  0  4           0  0  0
   -2.8756   -0.1227   -2.2995 C   0  0  0  0  0  4           0  0  0
    7.1422    4.9423    0.2132 C   0  0  0  0  0  4           0  0  0
   -0.1176   -0.1149   -2.5151 C   0  0  0  0  0  4           0  0  0
    8.2316    5.6497   -1.8260 C   0  0  0  0  0  4           0  0  0
    3.6628    0.4549    0.7871 C   0  0  0  0  0  4           0  0  0
    7.7187    3.3144   -1.4883 C   0  0  0  0  0  4           0  0  0
    8.2522    4.3309   -2.2775 C   0  0  0  0  0  4           0  0  0
    6.0486    2.6726    1.7656 C   0  0  0  0  0  4           0  0  0
   -4.2560   -0.8498   -4.6753 C   0  0  0  0  0  4           0  0  0
  -11.0043    0.4732   -6.1142 C   0  0  0  0  0  4           0  0  0
    1.0348   -0.2111   -5.0380 C   0  0  0  0  0  4           0  0  0
    7.1529    7.6168    1.0188 C   0  0  0  0  0  4           0  0  0
   -5.9112   -2.2103   -6.0868 C   0  0  0  0  0  4           0  0  0
   -7.2721   -0.3284   -6.7888 C   0  0  0  0  0  4           0  0  0
   -8.3017   -2.3095   -5.8503 C   0  0  0  0  0  4           0  0  0
    5.5780    1.3494    2.3253 C   0  0  0  0  0  4           0  0  0
   -9.7844   -0.3596   -6.4827 C   0  0  1  0  0  4           0  0  0
   -4.5619   -1.4803   -6.0272 C   0  0  0  0  0  4           0  0  0
   -8.5210    0.5056   -6.4964 C   0  0  0  0  0  4           0  0  0
   -9.5847   -1.5416   -5.5251 C   0  0  0  0  0  4           0  0  0
  1 13  1  0     0  0
  1 31  1  0     0  0
  2 14  1  0     0  0
  2 33  1  0     0  0
  3 15  1  0     0  0
  3 34  1  0     0  0
  4 30  2  0     0  0
  5 32  1  0     0  0
  6  7  1  0     0  0
  6 20  1  0     0  0
  7 17  2  0     0  0
  8 16  1  0     0  0
  8 18  2  0     0  0
  9 16  2  0     0  0
  9 19  1  0     0  0
 10 17  1  0     0  0
 10 18  1  0     0  0
 11 21  1  0     0  0
 11 30  1  0     0  0
 12 35  1  0     0  0
 12 36  1  0     0  0
 12 37  1  0     0  0
 13 14  1  0     0  0
 13 23  2  0     0  0
 14 25  2  0     0  0
 15 24  2  0     0  0
 15 26  1  0     0  0
 17 27  1  0     0  0
 18 22  1  0     0  0
 19 22  2  0     0  0
 19 23  1  0     0  0
 20 27  2  0     0  0
 20 38  1  0     0  0
 21 24  1  0     0  0
 21 28  2  0     0  0
 22 25  1  0     0  0
 26 29  2  0     0  0
 28 29  1  0     0  0
 30 38  1  0     0  0
 31 40  1  0     0  0
 32 39  1  0     0  0
 35 40  1  0     0  0
 36 41  1  0     0  0
 37 42  1  0     0  0
 39 41  1  0     0  0
 39 42  1  0     0  0
M  END
> <standard_type>
pIC50

> <# Confs.>
25

> <canonical_smiles>
O=C(CC1=CC(NC2=NC=NC3=C2C=C(OC)C(OCCCN4CCC(CO)CC4)=C3)=NN1)NC5=CC=CC(OC)=C5

> <standard_relation>
=

> <Publication_ID>
nan

> <predicted_activity_value>
8.065501548756432

> <actual_activity_value>
8.045757490560675

> <Compound>
6

> <standard_units>
nM

> hash
17619100297895759804

$$$$
5
XXILIB    08252103493D 0   0.00000     0.00000

 42 46  0     1  0            999 V2000
   -2.9839   -0.2052   -4.7445 O   0  0  0  0  0  2           0  0  0
   -0.3882   -0.2093   -4.9482 O   0  0  0  0  0  2           0  0  0
    7.7446   -3.8710    6.1378 O   0  0  0  0  0  2           0  0  0
    5.8984    0.1932    4.4020 O   0  0  0  0  0  2           0  0  0
   -8.2963    7.3887   -4.0907 O   0  0  0  0  0  2           0  0  0
    3.0970    1.5066    2.6067 N   0  0  0  0  0  3           0  0  0
    1.9189    1.1854    2.0532 N   0  0  0  0  0  3           0  0  0
   -0.6495    0.0000    1.1904 N   0  0  0  0  0  3           0  0  0
   -2.7540   -0.0514    0.0452 N   0  0  0  0  0  3           0  0  0
    1.4152    0.0000    0.0000 N   0  0  0  0  0  3           0  0  0
    6.6716   -0.8000    2.4476 N   0  0  0  0  0  3           0  0  0
   -6.1311    2.8716   -5.3946 N   0  0  1  0  0  3           0  0  0
   -2.2871   -0.1609   -3.5701 C   0  0  0  0  0  4           0  0  0
   -0.8932   -0.1635   -3.6794 C   0  0  0  0  0  4           0  0  0
    7.7229   -3.4749    4.8302 C   0  0  0  0  0  4           0  0  0
   -1.9881   -0.0196    1.1450 C   0  0  0  0  0  4           0  0  0
    2.2520    0.5354    0.9274 C   0  0  0  0  0  4           0  0  0
    0.0000    0.0000    0.0000 C   0  0  0  0  0  4           0  0  0
   -2.1162   -0.0763   -1.1322 C   0  0  0  0  0  4           0  0  0
    4.1831    1.0971    1.8877 C   0  0  0  0  0  4           0  0  0
    7.2097   -1.9869    2.9791 C   0  0  0  0  0  4           0  0  0
   -0.7114   -0.0618   -1.2270 C   0  0  0  0  0  4           0  0  0
   -2.8756   -0.1227   -2.2995 C   0  0  0  0  0  4           0  0  0
    7.1679   -2.2819    4.3508 C   0  0  0  0  0  4           0  0  0
   -0.1176   -0.1149   -2.5151 C   0  0  0  0  0  4           0  0  0
    8.3107   -4.3708    3.9313 C   0  0  0  0  0  4           0  0  0
    3.6628    0.4549    0.7871 C   0  0  0  0  0  4           0  0  0
    7.8032   -2.8910    2.0919 C   0  0  0  0  0  4           0  0  0
    8.3517   -4.0796    2.5686 C   0  0  0  0  0  4           0  0  0
    6.0523    0.1971    3.1813 C   0  0  0  0  0  4           0  0  0
   -4.2574    0.4402   -4.7230 C   0  0  0  0  0  4           0  0  0
   -6.9774    6.8735   -3.9653 C   0  0  0  0  0  4           0  0  0
    1.0348   -0.2111   -5.0380 C   0  0  0  0  0  4           0  0  0
    7.1412   -2.9652    7.0590 C   0  0  0  0  0  4           0  0  0
   -5.9153    1.6890   -6.2312 C   0  0  0  0  0  4           0  0  0
   -5.1427    3.9228   -5.6840 C   0  0  0  0  0  4           0  0  0
   -7.5001    3.3768   -5.5831 C   0  0  0  0  0  4           0  0  0
    5.5780    1.3494    2.3253 C   0  0  0  0  0  4           0  0  0
   -6.7682    5.7059   -4.9195 C   0  0  1  0  0  4           0  0  0
   -4.5645    0.9682   -6.1178 C   0  0  0  0  0  4           0  0  0
   -5.3488    5.1464   -4.7889 C   0  0  0  0  0  4           0  0  0
   -7.7850    4.5814   -4.6835 C   0  0  0  0  0  4           0  0  0
  1 13  1  0     0  0
  1 31  1  0     0  0
  2 14  1  0     0  0
  2 33  1  0     0  0
  3 15  1  0     0  0
  3 34  1  0     0  0
  4 30  2  0     0  0
  5 32  1  0     0  0
  6  7  1  0     0  0
  6 20  1  0     0  0
  7 17  2  0     0  0
  8 16  1  0     0  0
  8 18  2  0     0  0
  9 16  2  0     0  0
  9 19  1  0     0  0
 10 17  1  0     0  0
 10 18  1  0     0  0
 11 21  1  0     0  0
 11 30  1  0     0  0
 12 35  1  0     0  0
 12 36  1  0     0  0
 12 37  1  0     0  0
 13 14  1  0     0  0
 13 23  2  0     0  0
 14 25  2  0     0  0
 15 24  2  0     0  0
 15 26  1  0     0  0
 17 27  1  0     0  0
 18 22  1  0     0  0
 19 22  2  0     0  0
 19 23  1  0     0  0
 20 27  2  0     0  0
 20 38  1  0     0  0
 21 24  1  0     0  0
 21 28  2  0     0  0
 22 25  1  0     0  0
 26 29  2  0     0  0
 28 29  1  0     0  0
 30 38  1  0     0  0
 31 40  1  0     0  0
 32 39  1  0     0  0
 35 40  1  0     0  0
 36 41  1  0     0  0
 37 42  1  0     0  0
 39 41  1  0     0  0
 39 42  1  0     0  0
M  END
> <standard_type>
pIC50

> <# Confs.>
25

> <canonical_smiles>
O=C(CC1=CC(NC2=NC=NC3=C2C=C(OC)C(OCCCN4CCC(CO)CC4)=C3)=NN1)NC5=CC=CC(OC)=C5

> <standard_relation>
=

> <Publication_ID>
nan

> <predicted_activity_value>
8.065501548756432

> <actual_activity_value>
8.045757490560675

> <Compound>
6

> <standard_units>
nM

> hash
17619100297895759804

$$$$
5
XXILIB    08252103493D 0   0.00000     0.00000

 42 46  0     1  0            999 V2000
   -2.9839   -0.2052   -4.7445 O   0  0  0  0  0  2           0  0  0
   -0.3882   -0.2093   -4.9482 O   0  0  0  0  0  2           0  0  0
    7.7128    7.2896   -0.2510 O   0  0  0  0  0  2           0  0  0
    5.8931    3.7263    2.3814 O   0  0  0  0  0  2           0  0  0
   -6.3622    7.4175   -7.2312 O   0  0  0  0  0  2           0  0  0
    3.0970    1.5066    2.6067 N   0  0  0  0  0  3           0  0  0
    1.9189    1.1854    2.0532 N   0  0  0  0  0  3           0  0  0
   -0.6495    0.0000    1.1904 N   0  0  0  0  0  3           0  0  0
   -2.7540   -0.0514    0.0452 N   0  0  0  0  0  3           0  0  0
    1.4152    0.0000    0.0000 N   0  0  0  0  0  3           0  0  0
    6.6341    2.5519    0.5172 N   0  0  0  0  0  3           0  0  0
   -6.3800    2.3994   -5.9599 N   0  0  1  0  0  3           0  0  0
   -2.2871   -0.1609   -3.5701 C   0  0  0  0  0  4           0  0  0
   -0.8932   -0.1635   -3.6794 C   0  0  0  0  0  4           0  0  0
    7.6750    5.9645   -0.5822 C   0  0  0  0  0  4           0  0  0
   -1.9881   -0.0196    1.1450 C   0  0  0  0  0  4           0  0  0
    2.2520    0.5354    0.9274 C   0  0  0  0  0  4           0  0  0
    0.0000    0.0000    0.0000 C   0  0  0  0  0  4           0  0  0
   -2.1162   -0.0763   -1.1322 C   0  0  0  0  0  4           0  0  0
    4.1831    1.0971    1.8877 C   0  0  0  0  0  4           0  0  0
    7.1612    3.6142   -0.2409 C   0  0  0  0  0  4           0  0  0
   -0.7114   -0.0618   -1.2270 C   0  0  0  0  0  4           0  0  0
   -2.8756   -0.1227   -2.2995 C   0  0  0  0  0  4           0  0  0
    7.1422    4.9423    0.2132 C   0  0  0  0  0  4           0  0  0
   -0.1176   -0.1149   -2.5151 C   0  0  0  0  0  4           0  0  0
    8.2316    5.6497   -1.8260 C   0  0  0  0  0  4           0  0  0
    3.6628    0.4549    0.7871 C   0  0  0  0  0  4           0  0  0
    7.7187    3.3144   -1.4883 C   0  0  0  0  0  4           0  0  0
    8.2522    4.3309   -2.2775 C   0  0  0  0  0  4           0  0  0
    6.0486    2.6726    1.7656 C   0  0  0  0  0  4           0  0  0
   -4.2574    0.4402   -4.7230 C   0  0  0  0  0  4           0  0  0
   -7.1289    6.6527   -6.3103 C   0  0  0  0  0  4           0  0  0
    1.0348   -0.2111   -5.0380 C   0  0  0  0  0  4           0  0  0
    7.1529    7.6168    1.0188 C   0  0  0  0  0  4           0  0  0
   -6.2849    0.9590   -6.2073 C   0  0  0  0  0  4           0  0  0
   -5.5481    3.1633   -6.9035 C   0  0  0  0  0  4           0  0  0
   -7.7847    2.8301   -6.0362 C   0  0  0  0  0  4           0  0  0
    5.5780    1.3494    2.3253 C   0  0  0  0  0  4           0  0  0
   -7.0675    5.1734   -6.6647 C   0  0  1  0  0  4           0  0  0
   -4.9013    0.3029   -6.0961 C   0  0  0  0  0  4           0  0  0
   -5.6232    4.6660   -6.6259 C   0  0  0  0  0  4           0  0  0
   -7.9343    4.3216   -5.7283 C   0  0  0  0  0  4           0  0  0
  1 13  1  0     0  0
  1 31  1  0     0  0
  2 14  1  0     0  0
  2 33  1  0     0  0
  3 15  1  0     0  0
  3 34  1  0     0  0
  4 30  2  0     0  0
  5 32  1  0     0  0
  6  7  1  0     0  0
  6 20  1  0     0  0
  7 17  2  0     0  0
  8 16  1  0     0  0
  8 18  2  0     0  0
  9 16  2  0     0  0
  9 19  1  0     0  0
 10 17  1  0     0  0
 10 18  1  0     0  0
 11 21  1  0     0  0
 11 30  1  0     0  0
 12 35  1  0     0  0
 12 36  1  0     0  0
 12 37  1  0     0  0
 13 14  1  0     0  0
 13 23  2  0     0  0
 14 25  2  0     0  0
 15 24  2  0     0  0
 15 26  1  0     0  0
 17 27  1  0     0  0
 18 22  1  0     0  0
 19 22  2  0     0  0
 19 23  1  0     0  0
 20 27  2  0     0  0
 20 38  1  0     0  0
 21 24  1  0     0  0
 21 28  2  0     0  0
 22 25  1  0     0  0
 26 29  2  0     0  0
 28 29  1  0     0  0
 30 38  1  0     0  0
 31 40  1  0     0  0
 32 39  1  0     0  0
 35 40  1  0     0  0
 36 41  1  0     0  0
 37 42  1  0     0  0
 39 41  1  0     0  0
 39 42  1  0     0  0
M  END
> <standard_type>
pIC50

> <# Confs.>
25

> <canonical_smiles>
O=C(CC1=CC(NC2=NC=NC3=C2C=C(OC)C(OCCCN4CCC(CO)CC4)=C3)=NN1)NC5=CC=CC(OC)=C5

> <standard_relation>
=

> <Publication_ID>
nan

> <predicted_activity_value>
8.065501548756432

> <actual_activity_value>
8.045757490560675

> <Compound>
6

> <standard_units>
nM

> hash
17619100297895759804

$$$$
5
XXILIB    08252103493D 0   0.00000     0.00000

 42 46  0     1  0            999 V2000
   -2.9839   -0.2052   -4.7445 O   0  0  0  0  0  2           0  0  0
   -0.3882   -0.2093   -4.9482 O   0  0  0  0  0  2           0  0  0
    7.7128    7.2896   -0.2510 O   0  0  0  0  0  2           0  0  0
    5.8931    3.7263    2.3814 O   0  0  0  0  0  2           0  0  0
   -5.3536   -3.3340  -13.0463 O   0  0  0  0  0  2           0  0  0
    3.0970    1.5066    2.6067 N   0  0  0  0  0  3           0  0  0
    1.9189    1.1854    2.0532 N   0  0  0  0  0  3           0  0  0
   -0.6495    0.0000    1.1904 N   0  0  0  0  0  3           0  0  0
   -2.7540   -0.0514    0.0452 N   0  0  0  0  0  3           0  0  0
    1.4152    0.0000    0.0000 N   0  0  0  0  0  3           0  0  0
    6.6341    2.5519    0.5172 N   0  0  0  0  0  3           0  0  0
   -5.2015   -1.6315   -8.1605 N   0  0  1  0  0  3           0  0  0
   -2.2871   -0.1609   -3.5701 C   0  0  0  0  0  4           0  0  0
   -0.8932   -0.1635   -3.6794 C   0  0  0  0  0  4           0  0  0
    7.6750    5.9645   -0.5822 C   0  0  0  0  0  4           0  0  0
   -1.9881   -0.0196    1.1450 C   0  0  0  0  0  4           0  0  0
    2.2520    0.5354    0.9274 C   0  0  0  0  0  4           0  0  0
    0.0000    0.0000    0.0000 C   0  0  0  0  0  4           0  0  0
   -2.1162   -0.0763   -1.1322 C   0  0  0  0  0  4           0  0  0
    4.1831    1.0971    1.8877 C   0  0  0  0  0  4           0  0  0
    7.1612    3.6142   -0.2409 C   0  0  0  0  0  4           0  0  0
   -0.7114   -0.0618   -1.2270 C   0  0  0  0  0  4           0  0  0
   -2.8756   -0.1227   -2.2995 C   0  0  0  0  0  4           0  0  0
    7.1422    4.9423    0.2132 C   0  0  0  0  0  4           0  0  0
   -0.1176   -0.1149   -2.5151 C   0  0  0  0  0  4           0  0  0
    8.2316    5.6497   -1.8260 C   0  0  0  0  0  4           0  0  0
    3.6628    0.4549    0.7871 C   0  0  0  0  0  4           0  0  0
    7.7187    3.3144   -1.4883 C   0  0  0  0  0  4           0  0  0
    8.2522    4.3309   -2.2775 C   0  0  0  0  0  4           0  0  0
    6.0486    2.6726    1.7656 C   0  0  0  0  0  4           0  0  0
   -4.4054   -0.2017   -4.6110 C   0  0  0  0  0  4           0  0  0
   -5.7045   -2.0976  -12.4388 C   0  0  0  0  0  4           0  0  0
    1.0348   -0.2111   -5.0380 C   0  0  0  0  0  4           0  0  0
    7.1529    7.6168    1.0188 C   0  0  0  0  0  4           0  0  0
   -4.6460   -1.4983   -6.8119 C   0  0  0  0  0  4           0  0  0
   -4.7998   -0.5075   -9.0213 C   0  0  0  0  0  4           0  0  0
   -4.7865   -2.9141   -8.7499 C   0  0  0  0  0  4           0  0  0
    5.5780    1.3494    2.3253 C   0  0  0  0  0  4           0  0  0
   -5.0306   -1.9608  -11.0806 C   0  0  1  0  0  4           0  0  0
   -5.0297   -0.2538   -5.9989 C   0  0  0  0  0  4           0  0  0
   -5.4050   -0.6304  -10.4211 C   0  0  0  0  0  4           0  0  0
   -5.3925   -3.1177  -10.1402 C   0  0  0  0  0  4           0  0  0
  1 13  1  0     0  0
  1 31  1  0     0  0
  2 14  1  0     0  0
  2 33  1  0     0  0
  3 15  1  0     0  0
  3 34  1  0     0  0
  4 30  2  0     0  0
  5 32  1  0     0  0
  6  7  1  0     0  0
  6 20  1  0     0  0
  7 17  2  0     0  0
  8 16  1  0     0  0
  8 18  2  0     0  0
  9 16  2  0     0  0
  9 19  1  0     0  0
 10 17  1  0     0  0
 10 18  1  0     0  0
 11 21  1  0     0  0
 11 30  1  0     0  0
 12 35  1  0     0  0
 12 36  1  0     0  0
 12 37  1  0     0  0
 13 14  1  0     0  0
 13 23  2  0     0  0
 14 25  2  0     0  0
 15 24  2  0     0  0
 15 26  1  0     0  0
 17 27  1  0     0  0
 18 22  1  0     0  0
 19 22  2  0     0  0
 19 23  1  0     0  0
 20 27  2  0     0  0
 20 38  1  0     0  0
 21 24  1  0     0  0
 21 28  2  0     0  0
 22 25  1  0     0  0
 26 29  2  0     0  0
 28 29  1  0     0  0
 30 38  1  0     0  0
 31 40  1  0     0  0
 32 39  1  0     0  0
 35 40  1  0     0  0
 36 41  1  0     0  0
 37 42  1  0     0  0
 39 41  1  0     0  0
 39 42  1  0     0  0
M  END
> <standard_type>
pIC50

> <# Confs.>
25

> <canonical_smiles>
O=C(CC1=CC(NC2=NC=NC3=C2C=C(OC)C(OCCCN4CCC(CO)CC4)=C3)=NN1)NC5=CC=CC(OC)=C5

> <standard_relation>
=

> <Publication_ID>
nan

> <predicted_activity_value>
8.065501548756432

> <actual_activity_value>
8.045757490560675

> <Compound>
6

> <standard_units>
nM

> hash
17619100297895759804

$$$$
5
XXILIB    08252103493D 0   0.00000     0.00000

 42 46  0     1  0            999 V2000
   -2.9839   -0.2052   -4.7445 O   0  0  0  0  0  2           0  0  0
   -0.3882   -0.2093   -4.9482 O   0  0  0  0  0  2           0  0  0
    7.7128    7.2896   -0.2510 O   0  0  0  0  0  2           0  0  0
    5.8931    3.7263    2.3814 O   0  0  0  0  0  2           0  0  0
  -11.3386    2.1311   -4.0796 O   0  0  0  0  0  2           0  0  0
    3.0970    1.5066    2.6067 N   0  0  0  0  0  3           0  0  0
    1.9189    1.1854    2.0532 N   0  0  0  0  0  3           0  0  0
   -0.6495   -0.0000    1.1904 N   0  0  0  0  0  3           0  0  0
   -2.7540   -0.0514    0.0452 N   0  0  0  0  0  3           0  0  0
    1.4152    0.0000    0.0000 N   0  0  0  0  0  3           0  0  0
    6.6341    2.5519    0.5172 N   0  0  0  0  0  3           0  0  0
   -7.3415   -0.9377   -5.2638 N   0  0  1  0  0  3           0  0  0
   -2.2871   -0.1609   -3.5701 C   0  0  0  0  0  4           0  0  0
   -0.8932   -0.1635   -3.6794 C   0  0  0  0  0  4           0  0  0
    7.6750    5.9645   -0.5822 C   0  0  0  0  0  4           0  0  0
   -1.9881   -0.0196    1.1450 C   0  0  0  0  0  4           0  0  0
    2.2520    0.5354    0.9274 C   0  0  0  0  0  4           0  0  0
    0.0000    0.0000    0.0000 C   0  0  0  0  0  4           0  0  0
   -2.1162   -0.0763   -1.1322 C   0  0  0  0  0  4           0  0  0
    4.1831    1.0971    1.8877 C   0  0  0  0  0  4           0  0  0
    7.1612    3.6142   -0.2409 C   0  0  0  0  0  4           0  0  0
   -0.7114   -0.0618   -1.2270 C   0  0  0  0  0  4           0  0  0
   -2.8756   -0.1227   -2.2995 C   0  0  0  0  0  4           0  0  0
    7.1422    4.9423    0.2132 C   0  0  0  0  0  4           0  0  0
   -0.1176   -0.1149   -2.5151 C   0  0  0  0  0  4           0  0  0
    8.2316    5.6497   -1.8260 C   0  0  0  0  0  4           0  0  0
    3.6628    0.4549    0.7871 C   0  0  0  0  0  4           0  0  0
    7.7187    3.3144   -1.4883 C   0  0  0  0  0  4           0  0  0
    8.2522    4.3309   -2.2775 C   0  0  0  0  0  4           0  0  0
    6.0486    2.6726    1.7656 C   0  0  0  0  0  4           0  0  0
   -4.2560   -0.8498   -4.6753 C   0  0  0  0  0  4           0  0  0
  -11.0309    0.7773   -3.7738 C   0  0  0  0  0  4           0  0  0
    1.0348   -0.2111   -5.0380 C   0  0  0  0  0  4           0  0  0
    7.1529    7.6168    1.0188 C   0  0  0  0  0  4           0  0  0
   -6.2823   -1.4813   -6.1169 C   0  0  0  0  0  4           0  0  0
   -7.6129    0.4743   -5.5772 C   0  0  0  0  0  4           0  0  0
   -8.5624   -1.7468   -5.4024 C   0  0  0  0  0  4           0  0  0
    5.5780    1.3494    2.3253 C   0  0  0  0  0  4           0  0  0
   -9.9909    0.2347   -4.7441 C   0  0  1  0  0  4           0  0  0
   -4.9001   -0.8159   -6.0546 C   0  0  0  0  0  4           0  0  0
   -8.6978    1.0512   -4.6656 C   0  0  0  0  0  4           0  0  0
   -9.6785   -1.2446   -4.4838 C   0  0  0  0  0  4           0  0  0
  1 13  1  0     0  0
  1 31  1  0     0  0
  2 14  1  0     0  0
  2 33  1  0     0  0
  3 15  1  0     0  0
  3 34  1  0     0  0
  4 30  2  0     0  0
  5 32  1  0     0  0
  6  7  1  0     0  0
  6 20  1  0     0  0
  7 17  2  0     0  0
  8 16  1  0     0  0
  8 18  2  0     0  0
  9 16  2  0     0  0
  9 19  1  0     0  0
 10 17  1  0     0  0
 10 18  1  0     0  0
 11 21  1  0     0  0
 11 30  1  0     0  0
 12 35  1  0     0  0
 12 36  1  0     0  0
 12 37  1  0     0  0
 13 14  1  0     0  0
 13 23  2  0     0  0
 14 25  2  0     0  0
 15 24  2  0     0  0
 15 26  1  0     0  0
 17 27  1  0     0  0
 18 22  1  0     0  0
 19 22  2  0     0  0
 19 23  1  0     0  0
 20 27  2  0     0  0
 20 38  1  0     0  0
 21 24  1  0     0  0
 21 28  2  0     0  0
 22 25  1  0     0  0
 26 29  2  0     0  0
 28 29  1  0     0  0
 30 38  1  0     0  0
 31 40  1  0     0  0
 32 39  1  0     0  0
 35 40  1  0     0  0
 36 41  1  0     0  0
 37 42  1  0     0  0
 39 41  1  0     0  0
 39 42  1  0     0  0
M  END
> <standard_type>
pIC50

> <# Confs.>
25

> <canonical_smiles>
O=C(CC1=CC(NC2=NC=NC3=C2C=C(OC)C(OCCCN4CCC(CO)CC4)=C3)=NN1)NC5=CC=CC(OC)=C5

> <standard_relation>
=

> <Publication_ID>
nan

> <predicted_activity_value>
8.065501548756432

> <actual_activity_value>
8.045757490560675

> <Compound>
6

> <standard_units>
nM

> hash
17619100297895759804

$$$$
5
XXILIB    08252103493D 0   0.00000     0.00000

 42 46  0     1  0            999 V2000
   -2.9839   -0.2052   -4.7445 O   0  0  0  0  0  2           0  0  0
   -0.3882   -0.2093   -4.9482 O   0  0  0  0  0  2           0  0  0
    7.7128    3.8622    6.1875 O   0  0  0  0  0  2           0  0  0
    5.8931   -0.1992    4.4178 O   0  0  0  0  0  2           0  0  0
   -8.2963    7.3887   -4.0907 O   0  0  0  0  0  2           0  0  0
    3.0970   -1.5042    2.6081 N   0  0  0  0  0  3           0  0  0
    1.9189   -1.1854    2.0532 N   0  0  0  0  0  3           0  0  0
   -0.6495    0.0000    1.1904 N   0  0  0  0  0  3           0  0  0
   -2.7540   -0.0514    0.0452 N   0  0  0  0  0  3           0  0  0
    1.4152    0.0000    0.0000 N   0  0  0  0  0  3           0  0  0
    6.6341    0.8281    2.4686 N   0  0  0  0  0  3           0  0  0
   -6.1311    2.8716   -5.3946 N   0  0  1  0  0  3           0  0  0
   -2.2871   -0.1609   -3.5701 C   0  0  0  0  0  4           0  0  0
   -0.8932   -0.1635   -3.6794 C   0  0  0  0  0  4           0  0  0
    7.6750    3.4864    4.8743 C   0  0  0  0  0  4           0  0  0
   -1.9881   -0.0196    1.1450 C   0  0  0  0  0  4           0  0  0
    2.2520   -0.5354    0.9274 C   0  0  0  0  0  4           0  0  0
    0.0000    0.0000    0.0000 C   0  0  0  0  0  4           0  0  0
   -2.1162   -0.0763   -1.1322 C   0  0  0  0  0  4           0  0  0
    4.1831   -1.0863    1.8939 C   0  0  0  0  0  4           0  0  0
    7.1612    2.0157    3.0096 C   0  0  0  0  0  4           0  0  0
   -0.7114   -0.0618   -1.2270 C   0  0  0  0  0  4           0  0  0
   -2.8756   -0.1227   -2.2995 C   0  0  0  0  0  4           0  0  0
    7.1422    2.2865    4.3868 C   0  0  0  0  0  4           0  0  0
   -0.1176   -0.1149   -2.5151 C   0  0  0  0  0  4           0  0  0
    8.2316    4.4062    3.9798 C   0  0  0  0  0  4           0  0  0
    3.6628   -0.4542    0.7875 C   0  0  0  0  0  4           0  0  0
    7.7187    2.9461    2.1262 C   0  0  0  0  0  4           0  0  0
    8.2522    4.1378    2.6120 C   0  0  0  0  0  4           0  0  0
    6.0486   -0.1927    3.1973 C   0  0  0  0  0  4           0  0  0
   -4.2574    0.4402   -4.7230 C   0  0  0  0  0  4           0  0  0
   -6.9774    6.8735   -3.9653 C   0  0  0  0  0  4           0  0  0
    1.0348   -0.2111   -5.0380 C   0  0  0  0  0  4           0  0  0
    7.1529    2.9261    7.1057 C   0  0  0  0  0  4           0  0  0
   -5.9153    1.6890   -6.2312 C   0  0  0  0  0  4           0  0  0
   -5.1427    3.9228   -5.6840 C   0  0  0  0  0  4           0  0  0
   -7.5001    3.3768   -5.5831 C   0  0  0  0  0  4           0  0  0
    5.5780   -1.3390    2.3312 C   0  0  0  0  0  4           0  0  0
   -6.7682    5.7059   -4.9195 C   0  0  1  0  0  4           0  0  0
   -4.5645    0.9682   -6.1178 C   0  0  0  0  0  4           0  0  0
   -5.3488    5.1464   -4.7889 C   0  0  0  0  0  4           0  0  0
   -7.7850    4.5814   -4.6835 C   0  0  0  0  0  4           0  0  0
  1 13  1  0     0  0
  1 31  1  0     0  0
  2 14  1  0     0  0
  2 33  1  0     0  0
  3 15  1  0     0  0
  3 34  1  0     0  0
  4 30  2  0     0  0
  5 32  1  0     0  0
  6  7  1  0     0  0
  6 20  1  0     0  0
  7 17  2  0     0  0
  8 16  1  0     0  0
  8 18  2  0     0  0
  9 16  2  0     0  0
  9 19  1  0     0  0
 10 17  1  0     0  0
 10 18  1  0     0  0
 11 21  1  0     0  0
 11 30  1  0     0  0
 12 35  1  0     0  0
 12 36  1  0     0  0
 12 37  1  0     0  0
 13 14  1  0     0  0
 13 23  2  0     0  0
 14 25  2  0     0  0
 15 24  2  0     0  0
 15 26  1  0     0  0
 17 27  1  0     0  0
 18 22  1  0     0  0
 19 22  2  0     0  0
 19 23  1  0     0  0
 20 27  2  0     0  0
 20 38  1  0     0  0
 21 24  1  0     0  0
 21 28  2  0     0  0
 22 25  1  0     0  0
 26 29  2  0     0  0
 28 29  1  0     0  0
 30 38  1  0     0  0
 31 40  1  0     0  0
 32 39  1  0     0  0
 35 40  1  0     0  0
 36 41  1  0     0  0
 37 42  1  0     0  0
 39 41  1  0     0  0
 39 42  1  0     0  0
M  END
> <standard_type>
pIC50

> <# Confs.>
25

> <canonical_smiles>
O=C(CC1=CC(NC2=NC=NC3=C2C=C(OC)C(OCCCN4CCC(CO)CC4)=C3)=NN1)NC5=CC=CC(OC)=C5

> <standard_relation>
=

> <Publication_ID>
nan

> <predicted_activity_value>
8.065501548756432

> <actual_activity_value>
8.045757490560675

> <Compound>
6

> <standard_units>
nM

> hash
17619100297895759804

$$$$
5
XXILIB    08252103493D 0   0.00000     0.00000

 42 46  0     1  0            999 V2000
   -2.9839   -0.2052   -4.7445 O   0  0  0  0  0  2           0  0  0
   -0.3882   -0.2093   -4.9482 O   0  0  0  0  0  2           0  0  0
    9.5916   -3.6879    0.0896 O   0  0  0  0  0  2           0  0  0
    7.0307    0.3091    0.7253 O   0  0  0  0  0  2           0  0  0
  -11.1789    4.1704   -4.6304 O   0  0  0  0  0  2           0  0  0
    3.0970    1.5066    2.6067 N   0  0  0  0  0  3           0  0  0
    1.9189    1.1854    2.0532 N   0  0  0  0  0  3           0  0  0
   -0.6495   -0.0000    1.1904 N   0  0  0  0  0  3           0  0  0
   -2.7540   -0.0514    0.0452 N   0  0  0  0  0  3           0  0  0
    1.4152    0.0000    0.0000 N   0  0  0  0  0  3           0  0  0
    6.5603   -0.8245    2.6995 N   0  0  0  0  0  3           0  0  0
   -7.2480    0.8891   -5.3880 N   0  0  1  0  0  3           0  0  0
   -2.2871   -0.1609   -3.5701 C   0  0  0  0  0  4           0  0  0
   -0.8932   -0.1635   -3.6794 C   0  0  0  0  0  4           0  0  0
    8.8151   -3.3768    1.1699 C   0  0  0  0  0  4           0  0  0
   -1.9881   -0.0196    1.1450 C   0  0  0  0  0  4           0  0  0
    2.2520    0.5354    0.9274 C   0  0  0  0  0  4           0  0  0
    0.0000    0.0000    0.0000 C   0  0  0  0  0  4           0  0  0
   -2.1162   -0.0763   -1.1322 C   0  0  0  0  0  4           0  0  0
    4.1831    1.0971    1.8877 C   0  0  0  0  0  4           0  0  0
    7.3182   -1.9920    2.4914 C   0  0  0  0  0  4           0  0  0
   -0.7114   -0.0618   -1.2270 C   0  0  0  0  0  4           0  0  0
   -2.8756   -0.1227   -2.2995 C   0  0  0  0  0  4           0  0  0
    8.0824   -2.1942    1.3314 C   0  0  0  0  0  4           0  0  0
   -0.1176   -0.1149   -2.5151 C   0  0  0  0  0  4           0  0  0
    8.7848   -4.3481    2.1758 C   0  0  0  0  0  4           0  0  0
    3.6628    0.4549    0.7871 C   0  0  0  0  0  4           0  0  0
    7.2952   -2.9734    3.4879 C   0  0  0  0  0  4           0  0  0
    8.0274   -4.1478    3.3288 C   0  0  0  0  0  4           0  0  0
    6.4718    0.2400    1.8192 C   0  0  0  0  0  4           0  0  0
   -4.4054   -0.2017   -4.6110 C   0  0  0  0  0  4           0  0  0
   -9.7675    4.3377   -4.6575 C   0  0  0  0  0  4           0  0  0
    1.0348   -0.2111   -5.0380 C   0  0  0  0  0  4           0  0  0
    9.6322   -2.6990   -0.9368 C   0  0  0  0  0  4           0  0  0
   -6.5650   -0.2553   -5.9953 C   0  0  0  0  0  4           0  0  0
   -6.8960    2.1472   -6.0656 C   0  0  0  0  0  4           0  0  0
   -8.7034    0.6745   -5.4099 C   0  0  0  0  0  4           0  0  0
    5.5780    1.3494    2.3253 C   0  0  0  0  0  4           0  0  0
   -9.1063    3.1720   -5.3796 C   0  0  1  0  0  4           0  0  0
   -5.0297   -0.2538   -5.9989 C   0  0  0  0  0  4           0  0  0
   -7.5853    3.3466   -5.4121 C   0  0  0  0  0  4           0  0  0
   -9.4528    1.8244   -4.7333 C   0  0  0  0  0  4           0  0  0
  1 13  1  0     0  0
  1 31  1  0     0  0
  2 14  1  0     0  0
  2 33  1  0     0  0
  3 15  1  0     0  0
  3 34  1  0     0  0
  4 30  2  0     0  0
  5 32  1  0     0  0
  6  7  1  0     0  0
  6 20  1  0     0  0
  7 17  2  0     0  0
  8 16  1  0     0  0
  8 18  2  0     0  0
  9 16  2  0     0  0
  9 19  1  0     0  0
 10 17  1  0     0  0
 10 18  1  0     0  0
 11 21  1  0     0  0
 11 30  1  0     0  0
 12 35  1  0     0  0
 12 36  1  0     0  0
 12 37  1  0     0  0
 13 14  1  0     0  0
 13 23  2  0     0  0
 14 25  2  0     0  0
 15 24  2  0     0  0
 15 26  1  0     0  0
 17 27  1  0     0  0
 18 22  1  0     0  0
 19 22  2  0     0  0
 19 23  1  0     0  0
 20 27  2  0     0  0
 20 38  1  0     0  0
 21 24  1  0     0  0
 21 28  2  0     0  0
 22 25  1  0     0  0
 26 29  2  0     0  0
 28 29  1  0     0  0
 30 38  1  0     0  0
 31 40  1  0     0  0
 32 39  1  0     0  0
 35 40  1  0     0  0
 36 41  1  0     0  0
 37 42  1  0     0  0
 39 41  1  0     0  0
 39 42  1  0     0  0
M  END
> <standard_type>
pIC50

> <# Confs.>
25

> <canonical_smiles>
O=C(CC1=CC(NC2=NC=NC3=C2C=C(OC)C(OCCCN4CCC(CO)CC4)=C3)=NN1)NC5=CC=CC(OC)=C5

> <standard_relation>
=

> <Publication_ID>
nan

> <predicted_activity_value>
8.065501548756432

> <actual_activity_value>
8.045757490560675

> <Compound>
6

> <standard_units>
nM

> hash
17619100297895759804

$$$$
5
XXILIB    08252103493D 0   0.00000     0.00000

 42 46  0     1  0            999 V2000
   -2.9839   -0.2052   -4.7445 O   0  0  0  0  0  2           0  0  0
   -0.3882   -0.2093   -4.9482 O   0  0  0  0  0  2           0  0  0
    7.7446   -7.2510   -0.2834 O   0  0  0  0  0  2           0  0  0
    5.8984   -3.7156    2.3683 O   0  0  0  0  0  2           0  0  0
   -8.2963    7.3887   -4.0907 O   0  0  0  0  0  2           0  0  0
    3.0970   -1.5042    2.6081 N   0  0  0  0  0  3           0  0  0
    1.9189   -1.1854    2.0532 N   0  0  0  0  0  3           0  0  0
   -0.6495    0.0000    1.1904 N   0  0  0  0  0  3           0  0  0
   -2.7540   -0.0514    0.0452 N   0  0  0  0  0  3           0  0  0
    1.4152   -0.0000    0.0000 N   0  0  0  0  0  3           0  0  0
    6.6716   -2.5197    0.5310 N   0  0  0  0  0  3           0  0  0
   -6.1311    2.8716   -5.3946 N   0  0  1  0  0  3           0  0  0
   -2.2871   -0.1609   -3.5701 C   0  0  0  0  0  4           0  0  0
   -0.8932   -0.1635   -3.6794 C   0  0  0  0  0  4           0  0  0
    7.7229   -5.9206   -0.5943 C   0  0  0  0  0  4           0  0  0
   -1.9881   -0.0196    1.1450 C   0  0  0  0  0  4           0  0  0
    2.2520   -0.5354    0.9274 C   0  0  0  0  0  4           0  0  0
    0.0000    0.0000    0.0000 C   0  0  0  0  0  4           0  0  0
   -2.1162   -0.0763   -1.1322 C   0  0  0  0  0  4           0  0  0
    4.1831   -1.0863    1.8939 C   0  0  0  0  0  4           0  0  0
    7.2097   -3.5734   -0.2312 C   0  0  0  0  0  4           0  0  0
   -0.7114   -0.0618   -1.2270 C   0  0  0  0  0  4           0  0  0
   -2.8756   -0.1227   -2.2995 C   0  0  0  0  0  4           0  0  0
    7.1679   -4.9089    0.1992 C   0  0  0  0  0  4           0  0  0
   -0.1176   -0.1149   -2.5151 C   0  0  0  0  0  4           0  0  0
    8.3107   -5.5900   -1.8196 C   0  0  0  0  0  4           0  0  0
    3.6628   -0.4542    0.7875 C   0  0  0  0  0  4           0  0  0
    7.8032   -3.2571   -1.4577 C   0  0  0  0  0  4           0  0  0
    8.3517   -4.2642   -2.2487 C   0  0  0  0  0  4           0  0  0
    6.0523   -2.6566    1.7613 C   0  0  0  0  0  4           0  0  0
   -4.2574    0.4402   -4.7230 C   0  0  0  0  0  4           0  0  0
   -6.9774    6.8735   -3.9653 C   0  0  0  0  0  4           0  0  0
    1.0348   -0.2111   -5.0380 C   0  0  0  0  0  4           0  0  0
    7.1412   -7.5959    0.9615 C   0  0  0  0  0  4           0  0  0
   -5.9153    1.6890   -6.2312 C   0  0  0  0  0  4           0  0  0
   -5.1427    3.9228   -5.6840 C   0  0  0  0  0  4           0  0  0
   -7.5001    3.3768   -5.5831 C   0  0  0  0  0  4           0  0  0
    5.5780   -1.3390    2.3312 C   0  0  0  0  0  4           0  0  0
   -6.7682    5.7059   -4.9195 C   0  0  1  0  0  4           0  0  0
   -4.5645    0.9682   -6.1178 C   0  0  0  0  0  4           0  0  0
   -5.3488    5.1464   -4.7889 C   0  0  0  0  0  4           0  0  0
   -7.7850    4.5814   -4.6835 C   0  0  0  0  0  4           0  0  0
  1 13  1  0     0  0
  1 31  1  0     0  0
  2 14  1  0     0  0
  2 33  1  0     0  0
  3 15  1  0     0  0
  3 34  1  0     0  0
  4 30  2  0     0  0
  5 32  1  0     0  0
  6  7  1  0     0  0
  6 20  1  0     0  0
  7 17  2  0     0  0
  8 16  1  0     0  0
  8 18  2  0     0  0
  9 16  2  0     0  0
  9 19  1  0     0  0
 10 17  1  0     0  0
 10 18  1  0     0  0
 11 21  1  0     0  0
 11 30  1  0     0  0
 12 35  1  0     0  0
 12 36  1  0     0  0
 12 37  1  0     0  0
 13 14  1  0     0  0
 13 23  2  0     0  0
 14 25  2  0     0  0
 15 24  2  0     0  0
 15 26  1  0     0  0
 17 27  1  0     0  0
 18 22  1  0     0  0
 19 22  2  0     0  0
 19 23  1  0     0  0
 20 27  2  0     0  0
 20 38  1  0     0  0
 21 24  1  0     0  0
 21 28  2  0     0  0
 22 25  1  0     0  0
 26 29  2  0     0  0
 28 29  1  0     0  0
 30 38  1  0     0  0
 31 40  1  0     0  0
 32 39  1  0     0  0
 35 40  1  0     0  0
 36 41  1  0     0  0
 37 42  1  0     0  0
 39 41  1  0     0  0
 39 42  1  0     0  0
M  END
> <standard_type>
pIC50

> <# Confs.>
25

> <canonical_smiles>
O=C(CC1=CC(NC2=NC=NC3=C2C=C(OC)C(OCCCN4CCC(CO)CC4)=C3)=NN1)NC5=CC=CC(OC)=C5

> <standard_relation>
=

> <Publication_ID>
nan

> <predicted_activity_value>
8.065501548756432

> <actual_activity_value>
8.045757490560675

> <Compound>
6

> <standard_units>
nM

> hash
17619100297895759804

$$$$
5
XXILIB    08252103493D 0   0.00000     0.00000

 42 46  0     1  0            999 V2000
   -2.9839   -0.2052   -4.7445 O   0  0  0  0  0  2           0  0  0
   -0.3882   -0.2093   -4.9482 O   0  0  0  0  0  2           0  0  0
    7.7446   -3.8710    6.1378 O   0  0  0  0  0  2           0  0  0
    5.8984    0.1932    4.4020 O   0  0  0  0  0  2           0  0  0
  -12.1738   -0.3348   -6.1031 O   0  0  0  0  0  2           0  0  0
    3.0970    1.5066    2.6067 N   0  0  0  0  0  3           0  0  0
    1.9189    1.1854    2.0532 N   0  0  0  0  0  3           0  0  0
   -0.6495   -0.0000    1.1904 N   0  0  0  0  0  3           0  0  0
   -2.7540   -0.0514    0.0452 N   0  0  0  0  0  3           0  0  0
    1.4152    0.0000    0.0000 N   0  0  0  0  0  3           0  0  0
    6.6716   -0.8000    2.4476 N   0  0  0  0  0  3           0  0  0
   -7.1225   -1.4299   -5.8244 N   0  0  1  0  0  3           0  0  0
   -2.2871   -0.1609   -3.5701 C   0  0  0  0  0  4           0  0  0
   -0.8932   -0.1635   -3.6794 C   0  0  0  0  0  4           0  0  0
    7.7229   -3.4749    4.8302 C   0  0  0  0  0  4           0  0  0
   -1.9881   -0.0196    1.1450 C   0  0  0  0  0  4           0  0  0
    2.2520    0.5354    0.9274 C   0  0  0  0  0  4           0  0  0
    0.0000    0.0000    0.0000 C   0  0  0  0  0  4           0  0  0
   -2.1162   -0.0763   -1.1322 C   0  0  0  0  0  4           0  0  0
    4.1831    1.0971    1.8877 C   0  0  0  0  0  4           0  0  0
    7.2097   -1.9869    2.9791 C   0  0  0  0  0  4           0  0  0
   -0.7114   -0.0618   -1.2270 C   0  0  0  0  0  4           0  0  0
   -2.8756   -0.1227   -2.2995 C   0  0  0  0  0  4           0  0  0
    7.1679   -2.2819    4.3508 C   0  0  0  0  0  4           0  0  0
   -0.1176   -0.1149   -2.5151 C   0  0  0  0  0  4           0  0  0
    8.3107   -4.3708    3.9313 C   0  0  0  0  0  4           0  0  0
    3.6628    0.4549    0.7871 C   0  0  0  0  0  4           0  0  0
    7.8032   -2.8910    2.0919 C   0  0  0  0  0  4           0  0  0
    8.3517   -4.0796    2.5686 C   0  0  0  0  0  4           0  0  0
    6.0523    0.1971    3.1813 C   0  0  0  0  0  4           0  0  0
   -4.2560   -0.8498   -4.6753 C   0  0  0  0  0  4           0  0  0
  -11.0043    0.4732   -6.1142 C   0  0  0  0  0  4           0  0  0
    1.0348   -0.2111   -5.0380 C   0  0  0  0  0  4           0  0  0
    7.1412   -2.9652    7.0590 C   0  0  0  0  0  4           0  0  0
   -5.9112   -2.2103   -6.0868 C   0  0  0  0  0  4           0  0  0
   -7.2721   -0.3284   -6.7888 C   0  0  0  0  0  4           0  0  0
   -8.3017   -2.3095   -5.8503 C   0  0  0  0  0  4           0  0  0
    5.5780    1.3494    2.3253 C   0  0  0  0  0  4           0  0  0
   -9.7844   -0.3596   -6.4827 C   0  0  1  0  0  4           0  0  0
   -4.5619   -1.4803   -6.0272 C   0  0  0  0  0  4           0  0  0
   -8.5210    0.5056   -6.4964 C   0  0  0  0  0  4           0  0  0
   -9.5847   -1.5416   -5.5251 C   0  0  0  0  0  4           0  0  0
  1 13  1  0     0  0
  1 31  1  0     0  0
  2 14  1  0     0  0
  2 33  1  0     0  0
  3 15  1  0     0  0
  3 34  1  0     0  0
  4 30  2  0     0  0
  5 32  1  0     0  0
  6  7  1  0     0  0
  6 20  1  0     0  0
  7 17  2  0     0  0
  8 16  1  0     0  0
  8 18  2  0     0  0
  9 16  2  0     0  0
  9 19  1  0     0  0
 10 17  1  0     0  0
 10 18  1  0     0  0
 11 21  1  0     0  0
 11 30  1  0     0  0
 12 35  1  0     0  0
 12 36  1  0     0  0
 12 37  1  0     0  0
 13 14  1  0     0  0
 13 23  2  0     0  0
 14 25  2  0     0  0
 15 24  2  0     0  0
 15 26  1  0     0  0
 17 27  1  0     0  0
 18 22  1  0     0  0
 19 22  2  0     0  0
 19 23  1  0     0  0
 20 27  2  0     0  0
 20 38  1  0     0  0
 21 24  1  0     0  0
 21 28  2  0     0  0
 22 25  1  0     0  0
 26 29  2  0     0  0
 28 29  1  0     0  0
 30 38  1  0     0  0
 31 40  1  0     0  0
 32 39  1  0     0  0
 35 40  1  0     0  0
 36 41  1  0     0  0
 37 42  1  0     0  0
 39 41  1  0     0  0
 39 42  1  0     0  0
M  END
> <standard_type>
pIC50

> <# Confs.>
25

> <canonical_smiles>
O=C(CC1=CC(NC2=NC=NC3=C2C=C(OC)C(OCCCN4CCC(CO)CC4)=C3)=NN1)NC5=CC=CC(OC)=C5

> <standard_relation>
=

> <Publication_ID>
nan

> <predicted_activity_value>
8.065501548756432

> <actual_activity_value>
8.045757490560675

> <Compound>
6

> <standard_units>
nM

> hash
17619100297895759804

$$$$
5
XXILIB    08252103493D 0   0.00000     0.00000

 42 46  0     1  0            999 V2000
   -2.9839   -0.2052   -4.7445 O   0  0  0  0  0  2           0  0  0
   -0.3882   -0.2093   -4.9482 O   0  0  0  0  0  2           0  0  0
    7.7390    7.2874   -0.2342 O   0  0  0  0  0  2           0  0  0
    5.4763    3.7279    2.0349 O   0  0  0  0  0  2           0  0  0
   -6.0575    7.9194   -4.2493 O   0  0  0  0  0  2           0  0  0
    3.0970    1.5066    2.6067 N   0  0  0  0  0  3           0  0  0
    1.9189    1.1854    2.0532 N   0  0  0  0  0  3           0  0  0
   -0.6495    0.0000    1.1904 N   0  0  0  0  0  3           0  0  0
   -2.7540   -0.0514    0.0452 N   0  0  0  0  0  3           0  0  0
    1.4152    0.0000    0.0000 N   0  0  0  0  0  3           0  0  0
    7.1468    2.5454    0.9327 N   0  0  0  0  0  3           0  0  0
   -6.1311    2.8716   -5.3946 N   0  0  1  0  0  3           0  0  0
   -2.2871   -0.1609   -3.5701 C   0  0  0  0  0  4           0  0  0
   -0.8932   -0.1635   -3.6794 C   0  0  0  0  0  4           0  0  0
    8.0527    5.9583   -0.2793 C   0  0  0  0  0  4           0  0  0
   -1.9881   -0.0196    1.1450 C   0  0  0  0  0  4           0  0  0
    2.2520    0.5354    0.9274 C   0  0  0  0  0  4           0  0  0
    0.0000    0.0000    0.0000 C   0  0  0  0  0  4           0  0  0
   -2.1162   -0.0763   -1.1322 C   0  0  0  0  0  4           0  0  0
    4.1831    1.0971    1.8877 C   0  0  0  0  0  4           0  0  0
    7.7957    3.6061    0.2734 C   0  0  0  0  0  4           0  0  0
   -0.7114   -0.0618   -1.2270 C   0  0  0  0  0  4           0  0  0
   -2.8756   -0.1227   -2.2995 C   0  0  0  0  0  4           0  0  0
    7.3759    4.9393    0.4027 C   0  0  0  0  0  4           0  0  0
   -0.1176   -0.1149   -2.5151 C   0  0  0  0  0  4           0  0  0
    9.1523    5.6371   -1.0817 C   0  0  0  0  0  4           0  0  0
    3.6628    0.4549    0.7871 C   0  0  0  0  0  4           0  0  0
    8.8954    3.2993   -0.5348 C   0  0  0  0  0  4           0  0  0
    9.5709    4.3136   -1.2098 C   0  0  0  0  0  4           0  0  0
    6.0486    2.6726    1.7656 C   0  0  0  0  0  4           0  0  0
   -4.2574    0.4402   -4.7230 C   0  0  0  0  0  4           0  0  0
   -6.9774    6.8735   -3.9653 C   0  0  0  0  0  4           0  0  0
    1.0348   -0.2111   -5.0380 C   0  0  0  0  0  4           0  0  0
    6.6229    7.6227    0.5872 C   0  0  0  0  0  4           0  0  0
   -5.9153    1.6890   -6.2312 C   0  0  0  0  0  4           0  0  0
   -5.1427    3.9228   -5.6840 C   0  0  0  0  0  4           0  0  0
   -7.5001    3.3768   -5.5831 C   0  0  0  0  0  4           0  0  0
    5.5780    1.3494    2.3253 C   0  0  0  0  0  4           0  0  0
   -6.7682    5.7059   -4.9195 C   0  0  1  0  0  4           0  0  0
   -4.5645    0.9682   -6.1178 C   0  0  0  0  0  4           0  0  0
   -5.3488    5.1464   -4.7889 C   0  0  0  0  0  4           0  0  0
   -7.7850    4.5814   -4.6835 C   0  0  0  0  0  4           0  0  0
  1 13  1  0     0  0
  1 31  1  0     0  0
  2 14  1  0     0  0
  2 33  1  0     0  0
  3 15  1  0     0  0
  3 34  1  0     0  0
  4 30  2  0     0  0
  5 32  1  0     0  0
  6  7  1  0     0  0
  6 20  1  0     0  0
  7 17  2  0     0  0
  8 16  1  0     0  0
  8 18  2  0     0  0
  9 16  2  0     0  0
  9 19  1  0     0  0
 10 17  1  0     0  0
 10 18  1  0     0  0
 11 21  1  0     0  0
 11 30  1  0     0  0
 12 35  1  0     0  0
 12 36  1  0     0  0
 12 37  1  0     0  0
 13 14  1  0     0  0
 13 23  2  0     0  0
 14 25  2  0     0  0
 15 24  2  0     0  0
 15 26  1  0     0  0
 17 27  1  0     0  0
 18 22  1  0     0  0
 19 22  2  0     0  0
 19 23  1  0     0  0
 20 27  2  0     0  0
 20 38  1  0     0  0
 21 24  1  0     0  0
 21 28  2  0     0  0
 22 25  1  0     0  0
 26 29  2  0     0  0
 28 29  1  0     0  0
 30 38  1  0     0  0
 31 40  1  0     0  0
 32 39  1  0     0  0
 35 40  1  0     0  0
 36 41  1  0     0  0
 37 42  1  0     0  0
 39 41  1  0     0  0
 39 42  1  0     0  0
M  END
> <standard_type>
pIC50

> <# Confs.>
25

> <canonical_smiles>
O=C(CC1=CC(NC2=NC=NC3=C2C=C(OC)C(OCCCN4CCC(CO)CC4)=C3)=NN1)NC5=CC=CC(OC)=C5

> <standard_relation>
=

> <Publication_ID>
nan

> <predicted_activity_value>
8.065501548756432

> <actual_activity_value>
8.045757490560675

> <Compound>
6

> <standard_units>
nM

> hash
17619100297895759804

$$$$
5
XXILIB    08252103493D 0   0.00000     0.00000

 42 46  0     1  0            999 V2000
   -2.9839   -0.2052   -4.7445 O   0  0  0  0  0  2           0  0  0
   -0.3882   -0.2093   -4.9482 O   0  0  0  0  0  2           0  0  0
    7.7446   -7.2510   -0.2834 O   0  0  0  0  0  2           0  0  0
    5.8984   -3.7156    2.3683 O   0  0  0  0  0  2           0  0  0
  -12.1738   -0.3348   -6.1031 O   0  0  0  0  0  2           0  0  0
    3.0970   -1.5042    2.6081 N   0  0  0  0  0  3           0  0  0
    1.9189   -1.1854    2.0532 N   0  0  0  0  0  3           0  0  0
   -0.6495   -0.0000    1.1904 N   0  0  0  0  0  3           0  0  0
   -2.7540   -0.0514    0.0452 N   0  0  0  0  0  3           0  0  0
    1.4152   -0.0000    0.0000 N   0  0  0  0  0  3           0  0  0
    6.6716   -2.5197    0.5310 N   0  0  0  0  0  3           0  0  0
   -7.1225   -1.4299   -5.8244 N   0  0  1  0  0  3           0  0  0
   -2.2871   -0.1609   -3.5701 C   0  0  0  0  0  4           0  0  0
   -0.8932   -0.1635   -3.6794 C   0  0  0  0  0  4           0  0  0
    7.7229   -5.9206   -0.5943 C   0  0  0  0  0  4           0  0  0
   -1.9881   -0.0196    1.1450 C   0  0  0  0  0  4           0  0  0
    2.2520   -0.5354    0.9274 C   0  0  0  0  0  4           0  0  0
    0.0000    0.0000    0.0000 C   0  0  0  0  0  4           0  0  0
   -2.1162   -0.0763   -1.1322 C   0  0  0  0  0  4           0  0  0
    4.1831   -1.0863    1.8939 C   0  0  0  0  0  4           0  0  0
    7.2097   -3.5734   -0.2312 C   0  0  0  0  0  4           0  0  0
   -0.7114   -0.0618   -1.2270 C   0  0  0  0  0  4           0  0  0
   -2.8756   -0.1227   -2.2995 C   0  0  0  0  0  4           0  0  0
    7.1679   -4.9089    0.1992 C   0  0  0  0  0  4           0  0  0
   -0.1176   -0.1149   -2.5151 C   0  0  0  0  0  4           0  0  0
    8.3107   -5.5900   -1.8196 C   0  0  0  0  0  4           0  0  0
    3.6628   -0.4542    0.7875 C   0  0  0  0  0  4           0  0  0
    7.8032   -3.2571   -1.4577 C   0  0  0  0  0  4           0  0  0
    8.3517   -4.2642   -2.2487 C   0  0  0  0  0  4           0  0  0
    6.0523   -2.6566    1.7613 C   0  0  0  0  0  4           0  0  0
   -4.2560   -0.8498   -4.6753 C   0  0  0  0  0  4           0  0  0
  -11.0043    0.4732   -6.1142 C   0  0  0  0  0  4           0  0  0
    1.0348   -0.2111   -5.0380 C   0  0  0  0  0  4           0  0  0
    7.1412   -7.5959    0.9615 C   0  0  0  0  0  4           0  0  0
   -5.9112   -2.2103   -6.0868 C   0  0  0  0  0  4           0  0  0
   -7.2721   -0.3284   -6.7888 C   0  0  0  0  0  4           0  0  0
   -8.3017   -2.3095   -5.8503 C   0  0  0  0  0  4           0  0  0
    5.5780   -1.3390    2.3312 C   0  0  0  0  0  4           0  0  0
   -9.7844   -0.3596   -6.4827 C   0  0  1  0  0  4           0  0  0
   -4.5619   -1.4803   -6.0272 C   0  0  0  0  0  4           0  0  0
   -8.5210    0.5056   -6.4964 C   0  0  0  0  0  4           0  0  0
   -9.5847   -1.5416   -5.5251 C   0  0  0  0  0  4           0  0  0
  1 13  1  0     0  0
  1 31  1  0     0  0
  2 14  1  0     0  0
  2 33  1  0     0  0
  3 15  1  0     0  0
  3 34  1  0     0  0
  4 30  2  0     0  0
  5 32  1  0     0  0
  6  7  1  0     0  0
  6 20  1  0     0  0
  7 17  2  0     0  0
  8 16  1  0     0  0
  8 18  2  0     0  0
  9 16  2  0     0  0
  9 19  1  0     0  0
 10 17  1  0     0  0
 10 18  1  0     0  0
 11 21  1  0     0  0
 11 30  1  0     0  0
 12 35  1  0     0  0
 12 36  1  0     0  0
 12 37  1  0     0  0
 13 14  1  0     0  0
 13 23  2  0     0  0
 14 25  2  0     0  0
 15 24  2  0     0  0
 15 26  1  0     0  0
 17 27  1  0     0  0
 18 22  1  0     0  0
 19 22  2  0     0  0
 19 23  1  0     0  0
 20 27  2  0     0  0
 20 38  1  0     0  0
 21 24  1  0     0  0
 21 28  2  0     0  0
 22 25  1  0     0  0
 26 29  2  0     0  0
 28 29  1  0     0  0
 30 38  1  0     0  0
 31 40  1  0     0  0
 32 39  1  0     0  0
 35 40  1  0     0  0
 36 41  1  0     0  0
 37 42  1  0     0  0
 39 41  1  0     0  0
 39 42  1  0     0  0
M  END
> <standard_type>
pIC50

> <# Confs.>
25

> <canonical_smiles>
O=C(CC1=CC(NC2=NC=NC3=C2C=C(OC)C(OCCCN4CCC(CO)CC4)=C3)=NN1)NC5=CC=CC(OC)=C5

> <standard_relation>
=

> <Publication_ID>
nan

> <predicted_activity_value>
8.065501548756432

> <actual_activity_value>
8.045757490560675

> <Compound>
6

> <standard_units>
nM

> hash
17619100297895759804

$$$$
5
XXILIB    08252103493D 0   0.00000     0.00000

 42 46  0     1  0            999 V2000
   -2.9839   -0.2052   -4.7445 O   0  0  0  0  0  2           0  0  0
   -0.3882   -0.2093   -4.9482 O   0  0  0  0  0  2           0  0  0
    7.7446   -3.8710    6.1378 O   0  0  0  0  0  2           0  0  0
    5.8984    0.1932    4.4020 O   0  0  0  0  0  2           0  0  0
  -12.2289    0.0159   -3.8509 O   0  0  0  0  0  2           0  0  0
    3.0970    1.5066    2.6067 N   0  0  0  0  0  3           0  0  0
    1.9189    1.1854    2.0532 N   0  0  0  0  0  3           0  0  0
   -0.6495   -0.0000    1.1904 N   0  0  0  0  0  3           0  0  0
   -2.7540   -0.0514    0.0452 N   0  0  0  0  0  3           0  0  0
    1.4152    0.0000    0.0000 N   0  0  0  0  0  3           0  0  0
    6.6716   -0.8000    2.4476 N   0  0  0  0  0  3           0  0  0
   -7.3415   -0.9377   -5.2638 N   0  0  1  0  0  3           0  0  0
   -2.2871   -0.1609   -3.5701 C   0  0  0  0  0  4           0  0  0
   -0.8932   -0.1635   -3.6794 C   0  0  0  0  0  4           0  0  0
    7.7229   -3.4749    4.8302 C   0  0  0  0  0  4           0  0  0
   -1.9881   -0.0196    1.1450 C   0  0  0  0  0  4           0  0  0
    2.2520    0.5354    0.9274 C   0  0  0  0  0  4           0  0  0
    0.0000    0.0000    0.0000 C   0  0  0  0  0  4           0  0  0
   -2.1162   -0.0763   -1.1322 C   0  0  0  0  0  4           0  0  0
    4.1831    1.0971    1.8877 C   0  0  0  0  0  4           0  0  0
    7.2097   -1.9869    2.9791 C   0  0  0  0  0  4           0  0  0
   -0.7114   -0.0618   -1.2270 C   0  0  0  0  0  4           0  0  0
   -2.8756   -0.1227   -2.2995 C   0  0  0  0  0  4           0  0  0
    7.1679   -2.2819    4.3508 C   0  0  0  0  0  4           0  0  0
   -0.1176   -0.1149   -2.5151 C   0  0  0  0  0  4           0  0  0
    8.3107   -4.3708    3.9313 C   0  0  0  0  0  4           0  0  0
    3.6628    0.4549    0.7871 C   0  0  0  0  0  4           0  0  0
    7.8032   -2.8910    2.0919 C   0  0  0  0  0  4           0  0  0
    8.3517   -4.0796    2.5686 C   0  0  0  0  0  4           0  0  0
    6.0523    0.1971    3.1813 C   0  0  0  0  0  4           0  0  0
   -4.2560   -0.8498   -4.6753 C   0  0  0  0  0  4           0  0  0
  -11.0309    0.7773   -3.7738 C   0  0  0  0  0  4           0  0  0
    1.0348   -0.2111   -5.0380 C   0  0  0  0  0  4           0  0  0
    7.1412   -2.9652    7.0590 C   0  0  0  0  0  4           0  0  0
   -6.2823   -1.4813   -6.1169 C   0  0  0  0  0  4           0  0  0
   -7.6129    0.4743   -5.5772 C   0  0  0  0  0  4           0  0  0
   -8.5624   -1.7468   -5.4024 C   0  0  0  0  0  4           0  0  0
    5.5780    1.3494    2.3253 C   0  0  0  0  0  4           0  0  0
   -9.9909    0.2347   -4.7441 C   0  0  1  0  0  4           0  0  0
   -4.9001   -0.8159   -6.0546 C   0  0  0  0  0  4           0  0  0
   -8.6978    1.0512   -4.6656 C   0  0  0  0  0  4           0  0  0
   -9.6785   -1.2446   -4.4838 C   0  0  0  0  0  4           0  0  0
  1 13  1  0     0  0
  1 31  1  0     0  0
  2 14  1  0     0  0
  2 33  1  0     0  0
  3 15  1  0     0  0
  3 34  1  0     0  0
  4 30  2  0     0  0
  5 32  1  0     0  0
  6  7  1  0     0  0
  6 20  1  0     0  0
  7 17  2  0     0  0
  8 16  1  0     0  0
  8 18  2  0     0  0
  9 16  2  0     0  0
  9 19  1  0     0  0
 10 17  1  0     0  0
 10 18  1  0     0  0
 11 21  1  0     0  0
 11 30  1  0     0  0
 12 35  1  0     0  0
 12 36  1  0     0  0
 12 37  1  0     0  0
 13 14  1  0     0  0
 13 23  2  0     0  0
 14 25  2  0     0  0
 15 24  2  0     0  0
 15 26  1  0     0  0
 17 27  1  0     0  0
 18 22  1  0     0  0
 19 22  2  0     0  0
 19 23  1  0     0  0
 20 27  2  0     0  0
 20 38  1  0     0  0
 21 24  1  0     0  0
 21 28  2  0     0  0
 22 25  1  0     0  0
 26 29  2  0     0  0
 28 29  1  0     0  0
 30 38  1  0     0  0
 31 40  1  0     0  0
 32 39  1  0     0  0
 35 40  1  0     0  0
 36 41  1  0     0  0
 37 42  1  0     0  0
 39 41  1  0     0  0
 39 42  1  0     0  0
M  END
> <standard_type>
pIC50

> <# Confs.>
25

> <canonical_smiles>
O=C(CC1=CC(NC2=NC=NC3=C2C=C(OC)C(OCCCN4CCC(CO)CC4)=C3)=NN1)NC5=CC=CC(OC)=C5

> <standard_relation>
=

> <Publication_ID>
nan

> <predicted_activity_value>
8.065501548756432

> <actual_activity_value>
8.045757490560675

> <Compound>
6

> <standard_units>
nM

> hash
17619100297895759804

$$$$
5
XXILIB    08252103493D 0   0.00000     0.00000

 42 46  0     1  0            999 V2000
   -2.9839   -0.2052   -4.7445 O   0  0  0  0  0  2           0  0  0
   -0.3882   -0.2093   -4.9482 O   0  0  0  0  0  2           0  0  0
    7.7128    7.2896   -0.2510 O   0  0  0  0  0  2           0  0  0
    5.8931    3.7263    2.3814 O   0  0  0  0  0  2           0  0  0
   -9.2422   -6.1056   -4.8357 O   0  0  0  0  0  2           0  0  0
    3.0970    1.5066    2.6067 N   0  0  0  0  0  3           0  0  0
    1.9189    1.1854    2.0532 N   0  0  0  0  0  3           0  0  0
   -0.6495   -0.0000    1.1904 N   0  0  0  0  0  3           0  0  0
   -2.7540   -0.0514    0.0452 N   0  0  0  0  0  3           0  0  0
    1.4152    0.0000    0.0000 N   0  0  0  0  0  3           0  0  0
    6.6341    2.5519    0.5172 N   0  0  0  0  0  3           0  0  0
   -7.2457   -1.3531   -5.3050 N   0  0  1  0  0  3           0  0  0
   -2.2871   -0.1609   -3.5701 C   0  0  0  0  0  4           0  0  0
   -0.8932   -0.1635   -3.6794 C   0  0  0  0  0  4           0  0  0
    7.6750    5.9645   -0.5822 C   0  0  0  0  0  4           0  0  0
   -1.9881   -0.0196    1.1450 C   0  0  0  0  0  4           0  0  0
    2.2520    0.5354    0.9274 C   0  0  0  0  0  4           0  0  0
    0.0000    0.0000    0.0000 C   0  0  0  0  0  4           0  0  0
   -2.1162   -0.0763   -1.1322 C   0  0  0  0  0  4           0  0  0
    4.1831    1.0971    1.8877 C   0  0  0  0  0  4           0  0  0
    7.1612    3.6142   -0.2409 C   0  0  0  0  0  4           0  0  0
   -0.7114   -0.0618   -1.2270 C   0  0  0  0  0  4           0  0  0
   -2.8756   -0.1227   -2.2995 C   0  0  0  0  0  4           0  0  0
    7.1422    4.9423    0.2132 C   0  0  0  0  0  4           0  0  0
   -0.1176   -0.1149   -2.5151 C   0  0  0  0  0  4           0  0  0
    8.2316    5.6497   -1.8260 C   0  0  0  0  0  4           0  0  0
    3.6628    0.4549    0.7871 C   0  0  0  0  0  4           0  0  0
    7.7187    3.3144   -1.4883 C   0  0  0  0  0  4           0  0  0
    8.2522    4.3309   -2.2775 C   0  0  0  0  0  4           0  0  0
    6.0486    2.6726    1.7656 C   0  0  0  0  0  4           0  0  0
   -4.4054   -0.2017   -4.6110 C   0  0  0  0  0  4           0  0  0
   -9.6467   -4.8316   -4.3517 C   0  0  0  0  0  4           0  0  0
    1.0348   -0.2111   -5.0380 C   0  0  0  0  0  4           0  0  0
    7.1529    7.6168    1.0188 C   0  0  0  0  0  4           0  0  0
   -6.5650   -0.2553   -5.9953 C   0  0  0  0  0  4           0  0  0
   -8.7086   -1.2161   -5.3885 C   0  0  0  0  0  4           0  0  0
   -6.8099   -2.6433   -5.8621 C   0  0  0  0  0  4           0  0  0
    5.5780    1.3494    2.3253 C   0  0  0  0  0  4           0  0  0
   -8.9878   -3.7212   -5.1582 C   0  0  1  0  0  4           0  0  0
   -5.0297   -0.2538   -5.9989 C   0  0  0  0  0  4           0  0  0
   -9.4199   -2.3460   -4.6413 C   0  0  0  0  0  4           0  0  0
   -7.4571   -3.8207   -5.1296 C   0  0  0  0  0  4           0  0  0
  1 13  1  0     0  0
  1 31  1  0     0  0
  2 14  1  0     0  0
  2 33  1  0     0  0
  3 15  1  0     0  0
  3 34  1  0     0  0
  4 30  2  0     0  0
  5 32  1  0     0  0
  6  7  1  0     0  0
  6 20  1  0     0  0
  7 17  2  0     0  0
  8 16  1  0     0  0
  8 18  2  0     0  0
  9 16  2  0     0  0
  9 19  1  0     0  0
 10 17  1  0     0  0
 10 18  1  0     0  0
 11 21  1  0     0  0
 11 30  1  0     0  0
 12 35  1  0     0  0
 12 36  1  0     0  0
 12 37  1  0     0  0
 13 14  1  0     0  0
 13 23  2  0     0  0
 14 25  2  0     0  0
 15 24  2  0     0  0
 15 26  1  0     0  0
 17 27  1  0     0  0
 18 22  1  0     0  0
 19 22  2  0     0  0
 19 23  1  0     0  0
 20 27  2  0     0  0
 20 38  1  0     0  0
 21 24  1  0     0  0
 21 28  2  0     0  0
 22 25  1  0     0  0
 26 29  2  0     0  0
 28 29  1  0     0  0
 30 38  1  0     0  0
 31 40  1  0     0  0
 32 39  1  0     0  0
 35 40  1  0     0  0
 36 41  1  0     0  0
 37 42  1  0     0  0
 39 41  1  0     0  0
 39 42  1  0     0  0
M  END
> <standard_type>
pIC50

> <# Confs.>
25

> <canonical_smiles>
O=C(CC1=CC(NC2=NC=NC3=C2C=C(OC)C(OCCCN4CCC(CO)CC4)=C3)=NN1)NC5=CC=CC(OC)=C5

> <standard_relation>
=

> <Publication_ID>
nan

> <predicted_activity_value>
8.065501548756432

> <actual_activity_value>
8.045757490560675

> <Compound>
6

> <standard_units>
nM

> hash
17619100297895759804

$$$$
5
XXILIB    08252103493D 0   0.00000     0.00000

 42 46  0     1  0            999 V2000
   -2.9839   -0.2052   -4.7445 O   0  0  0  0  0  2           0  0  0
   -0.3882   -0.2093   -4.9482 O   0  0  0  0  0  2           0  0  0
    7.7128    3.8622    6.1875 O   0  0  0  0  0  2           0  0  0
    5.8931   -0.1992    4.4178 O   0  0  0  0  0  2           0  0  0
  -12.1738   -0.3348   -6.1031 O   0  0  0  0  0  2           0  0  0
    3.0970   -1.5042    2.6081 N   0  0  0  0  0  3           0  0  0
    1.9189   -1.1854    2.0532 N   0  0  0  0  0  3           0  0  0
   -0.6495   -0.0000    1.1904 N   0  0  0  0  0  3           0  0  0
   -2.7540   -0.0514    0.0452 N   0  0  0  0  0  3           0  0  0
    1.4152    0.0000    0.0000 N   0  0  0  0  0  3           0  0  0
    6.6341    0.8281    2.4686 N   0  0  0  0  0  3           0  0  0
   -7.1225   -1.4299   -5.8244 N   0  0  1  0  0  3           0  0  0
   -2.2871   -0.1609   -3.5701 C   0  0  0  0  0  4           0  0  0
   -0.8932   -0.1635   -3.6794 C   0  0  0  0  0  4           0  0  0
    7.6750    3.4864    4.8743 C   0  0  0  0  0  4           0  0  0
   -1.9881   -0.0196    1.1450 C   0  0  0  0  0  4           0  0  0
    2.2520   -0.5354    0.9274 C   0  0  0  0  0  4           0  0  0
    0.0000    0.0000    0.0000 C   0  0  0  0  0  4           0  0  0
   -2.1162   -0.0763   -1.1322 C   0  0  0  0  0  4           0  0  0
    4.1831   -1.0863    1.8939 C   0  0  0  0  0  4           0  0  0
    7.1612    2.0157    3.0096 C   0  0  0  0  0  4           0  0  0
   -0.7114   -0.0618   -1.2270 C   0  0  0  0  0  4           0  0  0
   -2.8756   -0.1227   -2.2995 C   0  0  0  0  0  4           0  0  0
    7.1422    2.2865    4.3868 C   0  0  0  0  0  4           0  0  0
   -0.1176   -0.1149   -2.5151 C   0  0  0  0  0  4           0  0  0
    8.2316    4.4062    3.9798 C   0  0  0  0  0  4           0  0  0
    3.6628   -0.4542    0.7875 C   0  0  0  0  0  4           0  0  0
    7.7187    2.9461    2.1262 C   0  0  0  0  0  4           0  0  0
    8.2522    4.1378    2.6120 C   0  0  0  0  0  4           0  0  0
    6.0486   -0.1927    3.1973 C   0  0  0  0  0  4           0  0  0
   -4.2560   -0.8498   -4.6753 C   0  0  0  0  0  4           0  0  0
  -11.0043    0.4732   -6.1142 C   0  0  0  0  0  4           0  0  0
    1.0348   -0.2111   -5.0380 C   0  0  0  0  0  4           0  0  0
    7.1529    2.9261    7.1057 C   0  0  0  0  0  4           0  0  0
   -5.9112   -2.2103   -6.0868 C   0  0  0  0  0  4           0  0  0
   -7.2721   -0.3284   -6.7888 C   0  0  0  0  0  4           0  0  0
   -8.3017   -2.3095   -5.8503 C   0  0  0  0  0  4           0  0  0
    5.5780   -1.3390    2.3312 C   0  0  0  0  0  4           0  0  0
   -9.7844   -0.3596   -6.4827 C   0  0  1  0  0  4           0  0  0
   -4.5619   -1.4803   -6.0272 C   0  0  0  0  0  4           0  0  0
   -8.5210    0.5056   -6.4964 C   0  0  0  0  0  4           0  0  0
   -9.5847   -1.5416   -5.5251 C   0  0  0  0  0  4           0  0  0
  1 13  1  0     0  0
  1 31  1  0     0  0
  2 14  1  0     0  0
  2 33  1  0     0  0
  3 15  1  0     0  0
  3 34  1  0     0  0
  4 30  2  0     0  0
  5 32  1  0     0  0
  6  7  1  0     0  0
  6 20  1  0     0  0
  7 17  2  0     0  0
  8 16  1  0     0  0
  8 18  2  0     0  0
  9 16  2  0     0  0
  9 19  1  0     0  0
 10 17  1  0     0  0
 10 18  1  0     0  0
 11 21  1  0     0  0
 11 30  1  0     0  0
 12 35  1  0     0  0
 12 36  1  0     0  0
 12 37  1  0     0  0
 13 14  1  0     0  0
 13 23  2  0     0  0
 14 25  2  0     0  0
 15 24  2  0     0  0
 15 26  1  0     0  0
 17 27  1  0     0  0
 18 22  1  0     0  0
 19 22  2  0     0  0
 19 23  1  0     0  0
 20 27  2  0     0  0
 20 38  1  0     0  0
 21 24  1  0     0  0
 21 28  2  0     0  0
 22 25  1  0     0  0
 26 29  2  0     0  0
 28 29  1  0     0  0
 30 38  1  0     0  0
 31 40  1  0     0  0
 32 39  1  0     0  0
 35 40  1  0     0  0
 36 41  1  0     0  0
 37 42  1  0     0  0
 39 41  1  0     0  0
 39 42  1  0     0  0
M  END
> <standard_type>
pIC50

> <# Confs.>
25

> <canonical_smiles>
O=C(CC1=CC(NC2=NC=NC3=C2C=C(OC)C(OCCCN4CCC(CO)CC4)=C3)=NN1)NC5=CC=CC(OC)=C5

> <standard_relation>
=

> <Publication_ID>
nan

> <predicted_activity_value>
8.065501548756432

> <actual_activity_value>
8.045757490560675

> <Compound>
6

> <standard_units>
nM

> hash
17619100297895759804

$$$$
5
XXILIB    08252103493D 0   0.00000     0.00000

 42 46  0     1  0            999 V2000
   -2.9839   -0.2052   -4.7445 O   0  0  0  0  0  2           0  0  0
   -0.3882   -0.2093   -4.9482 O   0  0  0  0  0  2           0  0  0
    7.7446   -3.8710    6.1378 O   0  0  0  0  0  2           0  0  0
    5.8984    0.1932    4.4020 O   0  0  0  0  0  2           0  0  0
   -8.4715    7.1183   -6.3478 O   0  0  0  0  0  2           0  0  0
    3.0970    1.5066    2.6067 N   0  0  0  0  0  3           0  0  0
    1.9189    1.1854    2.0532 N   0  0  0  0  0  3           0  0  0
   -0.6495    0.0000    1.1904 N   0  0  0  0  0  3           0  0  0
   -2.7540   -0.0514    0.0452 N   0  0  0  0  0  3           0  0  0
    1.4152    0.0000    0.0000 N   0  0  0  0  0  3           0  0  0
    6.6716   -0.8000    2.4476 N   0  0  0  0  0  3           0  0  0
   -6.3800    2.3994   -5.9599 N   0  0  1  0  0  3           0  0  0
   -2.2871   -0.1609   -3.5701 C   0  0  0  0  0  4           0  0  0
   -0.8932   -0.1635   -3.6794 C   0  0  0  0  0  4           0  0  0
    7.7229   -3.4749    4.8302 C   0  0  0  0  0  4           0  0  0
   -1.9881   -0.0196    1.1450 C   0  0  0  0  0  4           0  0  0
    2.2520    0.5354    0.9274 C   0  0  0  0  0  4           0  0  0
    0.0000    0.0000    0.0000 C   0  0  0  0  0  4           0  0  0
   -2.1162   -0.0763   -1.1322 C   0  0  0  0  0  4           0  0  0
    4.1831    1.0971    1.8877 C   0  0  0  0  0  4           0  0  0
    7.2097   -1.9869    2.9791 C   0  0  0  0  0  4           0  0  0
   -0.7114   -0.0618   -1.2270 C   0  0  0  0  0  4           0  0  0
   -2.8756   -0.1227   -2.2995 C   0  0  0  0  0  4           0  0  0
    7.1679   -2.2819    4.3508 C   0  0  0  0  0  4           0  0  0
   -0.1176   -0.1149   -2.5151 C   0  0  0  0  0  4           0  0  0
    8.3107   -4.3708    3.9313 C   0  0  0  0  0  4           0  0  0
    3.6628    0.4549    0.7871 C   0  0  0  0  0  4           0  0  0
    7.8032   -2.8910    2.0919 C   0  0  0  0  0  4           0  0  0
    8.3517   -4.0796    2.5686 C   0  0  0  0  0  4           0  0  0
    6.0523    0.1971    3.1813 C   0  0  0  0  0  4           0  0  0
   -4.2574    0.4402   -4.7230 C   0  0  0  0  0  4           0  0  0
   -7.1289    6.6527   -6.3103 C   0  0  0  0  0  4           0  0  0
    1.0348   -0.2111   -5.0380 C   0  0  0  0  0  4           0  0  0
    7.1412   -2.9652    7.0590 C   0  0  0  0  0  4           0  0  0
   -6.2849    0.9590   -6.2073 C   0  0  0  0  0  4           0  0  0
   -5.5481    3.1633   -6.9035 C   0  0  0  0  0  4           0  0  0
   -7.7847    2.8301   -6.0362 C   0  0  0  0  0  4           0  0  0
    5.5780    1.3494    2.3253 C   0  0  0  0  0  4           0  0  0
   -7.0675    5.1734   -6.6647 C   0  0  1  0  0  4           0  0  0
   -4.9013    0.3029   -6.0961 C   0  0  0  0  0  4           0  0  0
   -5.6232    4.6660   -6.6259 C   0  0  0  0  0  4           0  0  0
   -7.9343    4.3216   -5.7283 C   0  0  0  0  0  4           0  0  0
  1 13  1  0     0  0
  1 31  1  0     0  0
  2 14  1  0     0  0
  2 33  1  0     0  0
  3 15  1  0     0  0
  3 34  1  0     0  0
  4 30  2  0     0  0
  5 32  1  0     0  0
  6  7  1  0     0  0
  6 20  1  0     0  0
  7 17  2  0     0  0
  8 16  1  0     0  0
  8 18  2  0     0  0
  9 16  2  0     0  0
  9 19  1  0     0  0
 10 17  1  0     0  0
 10 18  1  0     0  0
 11 21  1  0     0  0
 11 30  1  0     0  0
 12 35  1  0     0  0
 12 36  1  0     0  0
 12 37  1  0     0  0
 13 14  1  0     0  0
 13 23  2  0     0  0
 14 25  2  0     0  0
 15 24  2  0     0  0
 15 26  1  0     0  0
 17 27  1  0     0  0
 18 22  1  0     0  0
 19 22  2  0     0  0
 19 23  1  0     0  0
 20 27  2  0     0  0
 20 38  1  0     0  0
 21 24  1  0     0  0
 21 28  2  0     0  0
 22 25  1  0     0  0
 26 29  2  0     0  0
 28 29  1  0     0  0
 30 38  1  0     0  0
 31 40  1  0     0  0
 32 39  1  0     0  0
 35 40  1  0     0  0
 36 41  1  0     0  0
 37 42  1  0     0  0
 39 41  1  0     0  0
 39 42  1  0     0  0
M  END
> <standard_type>
pIC50

> <# Confs.>
25

> <canonical_smiles>
O=C(CC1=CC(NC2=NC=NC3=C2C=C(OC)C(OCCCN4CCC(CO)CC4)=C3)=NN1)NC5=CC=CC(OC)=C5

> <standard_relation>
=

> <Publication_ID>
nan

> <predicted_activity_value>
8.065501548756432

> <actual_activity_value>
8.045757490560675

> <Compound>
6

> <standard_units>
nM

> hash
17619100297895759804

$$$$
5
XXILIB    08252103493D 0   0.00000     0.00000

 42 46  0     1  0            999 V2000
   -2.9839   -0.2052   -4.7445 O   0  0  0  0  0  2           0  0  0
   -0.3882   -0.2093   -4.9482 O   0  0  0  0  0  2           0  0  0
    7.7128    3.8622    6.1875 O   0  0  0  0  0  2           0  0  0
    5.8931   -0.1992    4.4178 O   0  0  0  0  0  2           0  0  0
  -12.2289    0.0159   -3.8509 O   0  0  0  0  0  2           0  0  0
    3.0970   -1.5042    2.6081 N   0  0  0  0  0  3           0  0  0
    1.9189   -1.1854    2.0532 N   0  0  0  0  0  3           0  0  0
   -0.6495   -0.0000    1.1904 N   0  0  0  0  0  3           0  0  0
   -2.7540   -0.0514    0.0452 N   0  0  0  0  0  3           0  0  0
    1.4152    0.0000    0.0000 N   0  0  0  0  0  3           0  0  0
    6.6341    0.8281    2.4686 N   0  0  0  0  0  3           0  0  0
   -7.3415   -0.9377   -5.2638 N   0  0  1  0  0  3           0  0  0
   -2.2871   -0.1609   -3.5701 C   0  0  0  0  0  4           0  0  0
   -0.8932   -0.1635   -3.6794 C   0  0  0  0  0  4           0  0  0
    7.6750    3.4864    4.8743 C   0  0  0  0  0  4           0  0  0
   -1.9881   -0.0196    1.1450 C   0  0  0  0  0  4           0  0  0
    2.2520   -0.5354    0.9274 C   0  0  0  0  0  4           0  0  0
    0.0000    0.0000    0.0000 C   0  0  0  0  0  4           0  0  0
   -2.1162   -0.0763   -1.1322 C   0  0  0  0  0  4           0  0  0
    4.1831   -1.0863    1.8939 C   0  0  0  0  0  4           0  0  0
    7.1612    2.0157    3.0096 C   0  0  0  0  0  4           0  0  0
   -0.7114   -0.0618   -1.2270 C   0  0  0  0  0  4           0  0  0
   -2.8756   -0.1227   -2.2995 C   0  0  0  0  0  4           0  0  0
    7.1422    2.2865    4.3868 C   0  0  0  0  0  4           0  0  0
   -0.1176   -0.1149   -2.5151 C   0  0  0  0  0  4           0  0  0
    8.2316    4.4062    3.9798 C   0  0  0  0  0  4           0  0  0
    3.6628   -0.4542    0.7875 C   0  0  0  0  0  4           0  0  0
    7.7187    2.9461    2.1262 C   0  0  0  0  0  4           0  0  0
    8.2522    4.1378    2.6120 C   0  0  0  0  0  4           0  0  0
    6.0486   -0.1927    3.1973 C   0  0  0  0  0  4           0  0  0
   -4.2560   -0.8498   -4.6753 C   0  0  0  0  0  4           0  0  0
  -11.0309    0.7773   -3.7738 C   0  0  0  0  0  4           0  0  0
    1.0348   -0.2111   -5.0380 C   0  0  0  0  0  4           0  0  0
    7.1529    2.9261    7.1057 C   0  0  0  0  0  4           0  0  0
   -6.2823   -1.4813   -6.1169 C   0  0  0  0  0  4           0  0  0
   -7.6129    0.4743   -5.5772 C   0  0  0  0  0  4           0  0  0
   -8.5624   -1.7468   -5.4024 C   0  0  0  0  0  4           0  0  0
    5.5780   -1.3390    2.3312 C   0  0  0  0  0  4           0  0  0
   -9.9909    0.2347   -4.7441 C   0  0  1  0  0  4           0  0  0
   -4.9001   -0.8159   -6.0546 C   0  0  0  0  0  4           0  0  0
   -8.6978    1.0512   -4.6656 C   0  0  0  0  0  4           0  0  0
   -9.6785   -1.2446   -4.4838 C   0  0  0  0  0  4           0  0  0
  1 13  1  0     0  0
  1 31  1  0     0  0
  2 14  1  0     0  0
  2 33  1  0     0  0
  3 15  1  0     0  0
  3 34  1  0     0  0
  4 30  2  0     0  0
  5 32  1  0     0  0
  6  7  1  0     0  0
  6 20  1  0     0  0
  7 17  2  0     0  0
  8 16  1  0     0  0
  8 18  2  0     0  0
  9 16  2  0     0  0
  9 19  1  0     0  0
 10 17  1  0     0  0
 10 18  1  0     0  0
 11 21  1  0     0  0
 11 30  1  0     0  0
 12 35  1  0     0  0
 12 36  1  0     0  0
 12 37  1  0     0  0
 13 14  1  0     0  0
 13 23  2  0     0  0
 14 25  2  0     0  0
 15 24  2  0     0  0
 15 26  1  0     0  0
 17 27  1  0     0  0
 18 22  1  0     0  0
 19 22  2  0     0  0
 19 23  1  0     0  0
 20 27  2  0     0  0
 20 38  1  0     0  0
 21 24  1  0     0  0
 21 28  2  0     0  0
 22 25  1  0     0  0
 26 29  2  0     0  0
 28 29  1  0     0  0
 30 38  1  0     0  0
 31 40  1  0     0  0
 32 39  1  0     0  0
 35 40  1  0     0  0
 36 41  1  0     0  0
 37 42  1  0     0  0
 39 41  1  0     0  0
 39 42  1  0     0  0
M  END
> <standard_type>
pIC50

> <# Confs.>
25

> <canonical_smiles>
O=C(CC1=CC(NC2=NC=NC3=C2C=C(OC)C(OCCCN4CCC(CO)CC4)=C3)=NN1)NC5=CC=CC(OC)=C5

> <standard_relation>
=

> <Publication_ID>
nan

> <predicted_activity_value>
8.065501548756432

> <actual_activity_value>
8.045757490560675

> <Compound>
6

> <standard_units>
nM

> hash
17619100297895759804

$$$$
5
XXILIB    08252103493D 0   0.00000     0.00000

 42 46  0     1  0            999 V2000
   -2.9839   -0.2052   -4.7445 O   0  0  0  0  0  2           0  0  0
   -0.3882   -0.2093   -4.9482 O   0  0  0  0  0  2           0  0  0
    7.7446   -7.2510   -0.2834 O   0  0  0  0  0  2           0  0  0
    5.8984   -3.7156    2.3683 O   0  0  0  0  0  2           0  0  0
  -12.2289    0.0159   -3.8509 O   0  0  0  0  0  2           0  0  0
    3.0970   -1.5042    2.6081 N   0  0  0  0  0  3           0  0  0
    1.9189   -1.1854    2.0532 N   0  0  0  0  0  3           0  0  0
   -0.6495   -0.0000    1.1904 N   0  0  0  0  0  3           0  0  0
   -2.7540   -0.0514    0.0452 N   0  0  0  0  0  3           0  0  0
    1.4152   -0.0000    0.0000 N   0  0  0  0  0  3           0  0  0
    6.6716   -2.5197    0.5310 N   0  0  0  0  0  3           0  0  0
   -7.3415   -0.9377   -5.2638 N   0  0  1  0  0  3           0  0  0
   -2.2871   -0.1609   -3.5701 C   0  0  0  0  0  4           0  0  0
   -0.8932   -0.1635   -3.6794 C   0  0  0  0  0  4           0  0  0
    7.7229   -5.9206   -0.5943 C   0  0  0  0  0  4           0  0  0
   -1.9881   -0.0196    1.1450 C   0  0  0  0  0  4           0  0  0
    2.2520   -0.5354    0.9274 C   0  0  0  0  0  4           0  0  0
    0.0000    0.0000    0.0000 C   0  0  0  0  0  4           0  0  0
   -2.1162   -0.0763   -1.1322 C   0  0  0  0  0  4           0  0  0
    4.1831   -1.0863    1.8939 C   0  0  0  0  0  4           0  0  0
    7.2097   -3.5734   -0.2312 C   0  0  0  0  0  4           0  0  0
   -0.7114   -0.0618   -1.2270 C   0  0  0  0  0  4           0  0  0
   -2.8756   -0.1227   -2.2995 C   0  0  0  0  0  4           0  0  0
    7.1679   -4.9089    0.1992 C   0  0  0  0  0  4           0  0  0
   -0.1176   -0.1149   -2.5151 C   0  0  0  0  0  4           0  0  0
    8.3107   -5.5900   -1.8196 C   0  0  0  0  0  4           0  0  0
    3.6628   -0.4542    0.7875 C   0  0  0  0  0  4           0  0  0
    7.8032   -3.2571   -1.4577 C   0  0  0  0  0  4           0  0  0
    8.3517   -4.2642   -2.2487 C   0  0  0  0  0  4           0  0  0
    6.0523   -2.6566    1.7613 C   0  0  0  0  0  4           0  0  0
   -4.2560   -0.8498   -4.6753 C   0  0  0  0  0  4           0  0  0
  -11.0309    0.7773   -3.7738 C   0  0  0  0  0  4           0  0  0
    1.0348   -0.2111   -5.0380 C   0  0  0  0  0  4           0  0  0
    7.1412   -7.5959    0.9615 C   0  0  0  0  0  4           0  0  0
   -6.2823   -1.4813   -6.1169 C   0  0  0  0  0  4           0  0  0
   -7.6129    0.4743   -5.5772 C   0  0  0  0  0  4           0  0  0
   -8.5624   -1.7468   -5.4024 C   0  0  0  0  0  4           0  0  0
    5.5780   -1.3390    2.3312 C   0  0  0  0  0  4           0  0  0
   -9.9909    0.2347   -4.7441 C   0  0  1  0  0  4           0  0  0
   -4.9001   -0.8159   -6.0546 C   0  0  0  0  0  4           0  0  0
   -8.6978    1.0512   -4.6656 C   0  0  0  0  0  4           0  0  0
   -9.6785   -1.2446   -4.4838 C   0  0  0  0  0  4           0  0  0
  1 13  1  0     0  0
  1 31  1  0     0  0
  2 14  1  0     0  0
  2 33  1  0     0  0
  3 15  1  0     0  0
  3 34  1  0     0  0
  4 30  2  0     0  0
  5 32  1  0     0  0
  6  7  1  0     0  0
  6 20  1  0     0  0
  7 17  2  0     0  0
  8 16  1  0     0  0
  8 18  2  0     0  0
  9 16  2  0     0  0
  9 19  1  0     0  0
 10 17  1  0     0  0
 10 18  1  0     0  0
 11 21  1  0     0  0
 11 30  1  0     0  0
 12 35  1  0     0  0
 12 36  1  0     0  0
 12 37  1  0     0  0
 13 14  1  0     0  0
 13 23  2  0     0  0
 14 25  2  0     0  0
 15 24  2  0     0  0
 15 26  1  0     0  0
 17 27  1  0     0  0
 18 22  1  0     0  0
 19 22  2  0     0  0
 19 23  1  0     0  0
 20 27  2  0     0  0
 20 38  1  0     0  0
 21 24  1  0     0  0
 21 28  2  0     0  0
 22 25  1  0     0  0
 26 29  2  0     0  0
 28 29  1  0     0  0
 30 38  1  0     0  0
 31 40  1  0     0  0
 32 39  1  0     0  0
 35 40  1  0     0  0
 36 41  1  0     0  0
 37 42  1  0     0  0
 39 41  1  0     0  0
 39 42  1  0     0  0
M  END
> <standard_type>
pIC50

> <# Confs.>
25

> <canonical_smiles>
O=C(CC1=CC(NC2=NC=NC3=C2C=C(OC)C(OCCCN4CCC(CO)CC4)=C3)=NN1)NC5=CC=CC(OC)=C5

> <standard_relation>
=

> <Publication_ID>
nan

> <predicted_activity_value>
8.065501548756432

> <actual_activity_value>
8.045757490560675

> <Compound>
6

> <standard_units>
nM

> hash
17619100297895759804

$$$$
5
XXILIB    08252103493D 0   0.00000     0.00000

 42 46  0     1  0            999 V2000
   -2.9839   -0.2052   -4.7445 O   0  0  0  0  0  2           0  0  0
   -0.3882   -0.2093   -4.9482 O   0  0  0  0  0  2           0  0  0
    7.7659   -7.2531   -0.2607 O   0  0  0  0  0  2           0  0  0
    5.4821   -3.7154    2.0212 O   0  0  0  0  0  2           0  0  0
   -9.4729    5.5627   -5.3158 O   0  0  0  0  0  2           0  0  0
    3.0970   -1.5042    2.6081 N   0  0  0  0  0  3           0  0  0
    1.9189   -1.1854    2.0532 N   0  0  0  0  0  3           0  0  0
   -0.6495   -0.0000    1.1904 N   0  0  0  0  0  3           0  0  0
   -2.7540   -0.0514    0.0452 N   0  0  0  0  0  3           0  0  0
    1.4152    0.0000    0.0000 N   0  0  0  0  0  3           0  0  0
    7.1731   -2.5247    0.9599 N   0  0  0  0  0  3           0  0  0
   -7.2480    0.8891   -5.3880 N   0  0  1  0  0  3           0  0  0
   -2.2871   -0.1609   -3.5701 C   0  0  0  0  0  4           0  0  0
   -0.8932   -0.1635   -3.6794 C   0  0  0  0  0  4           0  0  0
    8.0892   -5.9257   -0.2777 C   0  0  0  0  0  4           0  0  0
   -1.9881   -0.0196    1.1450 C   0  0  0  0  0  4           0  0  0
    2.2520   -0.5354    0.9274 C   0  0  0  0  0  4           0  0  0
    0.0000    0.0000    0.0000 C   0  0  0  0  0  4           0  0  0
   -2.1162   -0.0763   -1.1322 C   0  0  0  0  0  4           0  0  0
    4.1831   -1.0863    1.8939 C   0  0  0  0  0  4           0  0  0
    7.8305   -3.5796    0.2997 C   0  0  0  0  0  4           0  0  0
   -0.7114   -0.0618   -1.2270 C   0  0  0  0  0  4           0  0  0
   -2.8756   -0.1227   -2.2995 C   0  0  0  0  0  4           0  0  0
    7.3965   -4.9111    0.3948 C   0  0  0  0  0  4           0  0  0
   -0.1176   -0.1149   -2.5151 C   0  0  0  0  0  4           0  0  0
    9.2095   -5.5997   -1.0490 C   0  0  0  0  0  4           0  0  0
    3.6628   -0.4542    0.7875 C   0  0  0  0  0  4           0  0  0
    8.9542   -3.2687   -0.4732 C   0  0  0  0  0  4           0  0  0
    9.6407   -4.2775   -1.1453 C   0  0  0  0  0  4           0  0  0
    6.0523   -2.6566    1.7613 C   0  0  0  0  0  4           0  0  0
   -4.4054   -0.2017   -4.6110 C   0  0  0  0  0  4           0  0  0
   -9.7675    4.3377   -4.6575 C   0  0  0  0  0  4           0  0  0
    1.0348   -0.2111   -5.0380 C   0  0  0  0  0  4           0  0  0
    6.6208   -7.5916    0.5185 C   0  0  0  0  0  4           0  0  0
   -6.5650   -0.2553   -5.9953 C   0  0  0  0  0  4           0  0  0
   -6.8960    2.1472   -6.0656 C   0  0  0  0  0  4           0  0  0
   -8.7034    0.6745   -5.4099 C   0  0  0  0  0  4           0  0  0
    5.5780   -1.3390    2.3312 C   0  0  0  0  0  4           0  0  0
   -9.1063    3.1720   -5.3796 C   0  0  1  0  0  4           0  0  0
   -5.0297   -0.2538   -5.9989 C   0  0  0  0  0  4           0  0  0
   -7.5853    3.3466   -5.4121 C   0  0  0  0  0  4           0  0  0
   -9.4528    1.8244   -4.7333 C   0  0  0  0  0  4           0  0  0
  1 13  1  0     0  0
  1 31  1  0     0  0
  2 14  1  0     0  0
  2 33  1  0     0  0
  3 15  1  0     0  0
  3 34  1  0     0  0
  4 30  2  0     0  0
  5 32  1  0     0  0
  6  7  1  0     0  0
  6 20  1  0     0  0
  7 17  2  0     0  0
  8 16  1  0     0  0
  8 18  2  0     0  0
  9 16  2  0     0  0
  9 19  1  0     0  0
 10 17  1  0     0  0
 10 18  1  0     0  0
 11 21  1  0     0  0
 11 30  1  0     0  0
 12 35  1  0     0  0
 12 36  1  0     0  0
 12 37  1  0     0  0
 13 14  1  0     0  0
 13 23  2  0     0  0
 14 25  2  0     0  0
 15 24  2  0     0  0
 15 26  1  0     0  0
 17 27  1  0     0  0
 18 22  1  0     0  0
 19 22  2  0     0  0
 19 23  1  0     0  0
 20 27  2  0     0  0
 20 38  1  0     0  0
 21 24  1  0     0  0
 21 28  2  0     0  0
 22 25  1  0     0  0
 26 29  2  0     0  0
 28 29  1  0     0  0
 30 38  1  0     0  0
 31 40  1  0     0  0
 32 39  1  0     0  0
 35 40  1  0     0  0
 36 41  1  0     0  0
 37 42  1  0     0  0
 39 41  1  0     0  0
 39 42  1  0     0  0
M  END
> <standard_type>
pIC50

> <# Confs.>
25

> <canonical_smiles>
O=C(CC1=CC(NC2=NC=NC3=C2C=C(OC)C(OCCCN4CCC(CO)CC4)=C3)=NN1)NC5=CC=CC(OC)=C5

> <standard_relation>
=

> <Publication_ID>
nan

> <predicted_activity_value>
8.065501548756432

> <actual_activity_value>
8.045757490560675

> <Compound>
6

> <standard_units>
nM

> hash
17619100297895759804

$$$$
5
XXILIB    08252103493D 0   0.00000     0.00000

 42 46  0     1  0            999 V2000
   -2.9839   -0.2052   -4.7445 O   0  0  0  0  0  2           0  0  0
   -0.3882   -0.2093   -4.9482 O   0  0  0  0  0  2           0  0  0
    7.7390    7.2874   -0.2342 O   0  0  0  0  0  2           0  0  0
    5.4763    3.7279    2.0349 O   0  0  0  0  0  2           0  0  0
   -8.4715    7.1183   -6.3478 O   0  0  0  0  0  2           0  0  0
    3.0970    1.5066    2.6067 N   0  0  0  0  0  3           0  0  0
    1.9189    1.1854    2.0532 N   0  0  0  0  0  3           0  0  0
   -0.6495    0.0000    1.1904 N   0  0  0  0  0  3           0  0  0
   -2.7540   -0.0514    0.0452 N   0  0  0  0  0  3           0  0  0
    1.4152    0.0000    0.0000 N   0  0  0  0  0  3           0  0  0
    7.1468    2.5454    0.9327 N   0  0  0  0  0  3           0  0  0
   -6.3800    2.3994   -5.9599 N   0  0  1  0  0  3           0  0  0
   -2.2871   -0.1609   -3.5701 C   0  0  0  0  0  4           0  0  0
   -0.8932   -0.1635   -3.6794 C   0  0  0  0  0  4           0  0  0
    8.0527    5.9583   -0.2793 C   0  0  0  0  0  4           0  0  0
   -1.9881   -0.0196    1.1450 C   0  0  0  0  0  4           0  0  0
    2.2520    0.5354    0.9274 C   0  0  0  0  0  4           0  0  0
    0.0000    0.0000    0.0000 C   0  0  0  0  0  4           0  0  0
   -2.1162   -0.0763   -1.1322 C   0  0  0  0  0  4           0  0  0
    4.1831    1.0971    1.8877 C   0  0  0  0  0  4           0  0  0
    7.7957    3.6061    0.2734 C   0  0  0  0  0  4           0  0  0
   -0.7114   -0.0618   -1.2270 C   0  0  0  0  0  4           0  0  0
   -2.8756   -0.1227   -2.2995 C   0  0  0  0  0  4           0  0  0
    7.3759    4.9393    0.4027 C   0  0  0  0  0  4           0  0  0
   -0.1176   -0.1149   -2.5151 C   0  0  0  0  0  4           0  0  0
    9.1523    5.6371   -1.0817 C   0  0  0  0  0  4           0  0  0
    3.6628    0.4549    0.7871 C   0  0  0  0  0  4           0  0  0
    8.8954    3.2993   -0.5348 C   0  0  0  0  0  4           0  0  0
    9.5709    4.3136   -1.2098 C   0  0  0  0  0  4           0  0  0
    6.0486    2.6726    1.7656 C   0  0  0  0  0  4           0  0  0
   -4.2574    0.4402   -4.7230 C   0  0  0  0  0  4           0  0  0
   -7.1289    6.6527   -6.3103 C   0  0  0  0  0  4           0  0  0
    1.0348   -0.2111   -5.0380 C   0  0  0  0  0  4           0  0  0
    6.6229    7.6227    0.5872 C   0  0  0  0  0  4           0  0  0
   -6.2849    0.9590   -6.2073 C   0  0  0  0  0  4           0  0  0
   -5.5481    3.1633   -6.9035 C   0  0  0  0  0  4           0  0  0
   -7.7847    2.8301   -6.0362 C   0  0  0  0  0  4           0  0  0
    5.5780    1.3494    2.3253 C   0  0  0  0  0  4           0  0  0
   -7.0675    5.1734   -6.6647 C   0  0  1  0  0  4           0  0  0
   -4.9013    0.3029   -6.0961 C   0  0  0  0  0  4           0  0  0
   -5.6232    4.6660   -6.6259 C   0  0  0  0  0  4           0  0  0
   -7.9343    4.3216   -5.7283 C   0  0  0  0  0  4           0  0  0
  1 13  1  0     0  0
  1 31  1  0     0  0
  2 14  1  0     0  0
  2 33  1  0     0  0
  3 15  1  0     0  0
  3 34  1  0     0  0
  4 30  2  0     0  0
  5 32  1  0     0  0
  6  7  1  0     0  0
  6 20  1  0     0  0
  7 17  2  0     0  0
  8 16  1  0     0  0
  8 18  2  0     0  0
  9 16  2  0     0  0
  9 19  1  0     0  0
 10 17  1  0     0  0
 10 18  1  0     0  0
 11 21  1  0     0  0
 11 30  1  0     0  0
 12 35  1  0     0  0
 12 36  1  0     0  0
 12 37  1  0     0  0
 13 14  1  0     0  0
 13 23  2  0     0  0
 14 25  2  0     0  0
 15 24  2  0     0  0
 15 26  1  0     0  0
 17 27  1  0     0  0
 18 22  1  0     0  0
 19 22  2  0     0  0
 19 23  1  0     0  0
 20 27  2  0     0  0
 20 38  1  0     0  0
 21 24  1  0     0  0
 21 28  2  0     0  0
 22 25  1  0     0  0
 26 29  2  0     0  0
 28 29  1  0     0  0
 30 38  1  0     0  0
 31 40  1  0     0  0
 32 39  1  0     0  0
 35 40  1  0     0  0
 36 41  1  0     0  0
 37 42  1  0     0  0
 39 41  1  0     0  0
 39 42  1  0     0  0
M  END
> <standard_type>
pIC50

> <# Confs.>
25

> <canonical_smiles>
O=C(CC1=CC(NC2=NC=NC3=C2C=C(OC)C(OCCCN4CCC(CO)CC4)=C3)=NN1)NC5=CC=CC(OC)=C5

> <standard_relation>
=

> <Publication_ID>
nan

> <predicted_activity_value>
8.065501548756432

> <actual_activity_value>
8.045757490560675

> <Compound>
6

> <standard_units>
nM

> hash
17619100297895759804

$$$$
17
XXILIB    08252103493D 0   0.00000     0.00000

 17 18  0     1  0            999 V2000
    5.6932    1.8259    3.1444 Br  0  0  0  0  0  1           0  0  0
    3.9540    0.4865    0.8427 S   0  0  0  0  0  2           0  0  0
   -4.9187   -0.4959    0.8335 O   0  0  0  0  0  2           0  0  0
    1.7661    1.1648    2.0155 N   0  0  0  0  0  3           0  0  0
    1.4006    0.0000    0.0000 N   0  0  0  0  0  3           0  0  0
   -4.9119    0.5519   -1.2217 N   0  0  0  0  0  3           0  0  0
    4.0583    1.3340    2.3034 C   0  0  0  0  0  4           0  0  0
    2.2149    0.5417    0.9383 C   0  0  0  0  0  4           0  0  0
    2.8128    1.6175    2.7952 C   0  0  0  0  0  4           0  0  0
    0.0000    0.0000    0.0000 C   0  0  0  0  0  4           0  0  0
   -2.8291   -0.0022   -0.1062 C   0  0  0  0  0  4           0  0  0
   -0.7663    0.0000    1.1751 C   0  0  0  0  0  4           0  0  0
   -0.6803    0.0026   -1.2282 C   0  0  0  0  0  4           0  0  0
   -2.1648   -0.0016    1.1246 C   0  0  0  0  0  4           0  0  0
   -2.0783    0.0009   -1.2854 C   0  0  0  0  0  4           0  0  0
   -4.3109   -0.0075   -0.1162 C   0  0  0  0  0  4           0  0  0
   -6.3472    0.6154   -1.3656 C   0  0  0  0  0  4           0  0  0
  1  7  1  0     0  0
  2  7  1  0     0  0
  2  8  1  0     0  0
  3 16  2  0     0  0
  4  8  2  0     0  0
  4  9  1  0     0  0
  5  8  1  0     0  0
  5 10  1  0     0  0
  6 16  1  0     0  0
  6 17  1  0     0  0
  7  9  2  0     0  0
 10 12  2  0     0  0
 10 13  1  0     0  0
 11 14  2  0     0  0
 11 15  1  0     0  0
 11 16  1  0     0  0
 12 14  1  0     0  0
 13 15  2  0     0  0
M  END
> <standard_type>
pIC50

> <# Confs.>
20

> <canonical_smiles>
O=C(NC)C1=CC=C(NC2=NC=C(Br)S2)C=C1

> <standard_relation>
=

> <Publication_ID>
nan

> <predicted_activity_value>
6.275724130399211

> <actual_activity_value>
6.236572006437063

> <Compound>
18

> <standard_units>
nM

> hash
586248102528039147

$$$$
17
XXILIB    08252103493D 0   0.00000     0.00000

 17 18  0     1  0            999 V2000
    5.6932   -1.8102    3.1535 Br  0  0  0  0  0  1           0  0  0
    3.9540   -0.4865    0.8427 S   0  0  0  0  0  2           0  0  0
   -4.9223    0.4761    0.8337 O   0  0  0  0  0  2           0  0  0
    1.7661   -1.1630    2.0165 N   0  0  0  0  0  3           0  0  0
    1.4006    0.0000    0.0000 N   0  0  0  0  0  3           0  0  0
   -4.9079   -0.5707   -1.2220 N   0  0  0  0  0  3           0  0  0
    4.0583   -1.3278    2.3070 C   0  0  0  0  0  4           0  0  0
    2.2149   -0.5417    0.9383 C   0  0  0  0  0  4           0  0  0
    2.8128   -1.6120    2.7984 C   0  0  0  0  0  4           0  0  0
    0.0000    0.0000    0.0000 C   0  0  0  0  0  4           0  0  0
   -2.8291   -0.0022   -0.1062 C   0  0  0  0  0  4           0  0  0
   -0.7663    0.0000    1.1751 C   0  0  0  0  0  4           0  0  0
   -0.6803    0.0026   -1.2282 C   0  0  0  0  0  4           0  0  0
   -2.1648   -0.0016    1.1246 C   0  0  0  0  0  4           0  0  0
   -2.0783    0.0009   -1.2854 C   0  0  0  0  0  4           0  0  0
   -4.3109   -0.0075   -0.1162 C   0  0  0  0  0  4           0  0  0
   -6.3426   -0.6442   -1.3661 C   0  0  0  0  0  4           0  0  0
  1  7  1  0     0  0
  2  7  1  0     0  0
  2  8  1  0     0  0
  3 16  2  0     0  0
  4  8  2  0     0  0
  4  9  1  0     0  0
  5  8  1  0     0  0
  5 10  1  0     0  0
  6 16  1  0     0  0
  6 17  1  0     0  0
  7  9  2  0     0  0
 10 12  2  0     0  0
 10 13  1  0     0  0
 11 14  2  0     0  0
 11 15  1  0     0  0
 11 16  1  0     0  0
 12 14  1  0     0  0
 13 15  2  0     0  0
M  END
> <standard_type>
pIC50

> <# Confs.>
20

> <canonical_smiles>
O=C(NC)C1=CC=C(NC2=NC=C(Br)S2)C=C1

> <standard_relation>
=

> <Publication_ID>
nan

> <predicted_activity_value>
6.275724130399211

> <actual_activity_value>
6.236572006437063

> <Compound>
18

> <standard_units>
nM

> hash
586248102528039147

$$$$
17
XXILIB    08252103493D 0   0.00000     0.00000

 17 18  0     1  0            999 V2000
    5.6932    1.8102   -3.1535 Br  0  0  0  0  0  1           0  0  0
    3.9540    0.4865   -0.8427 S   0  0  0  0  0  2           0  0  0
   -4.9187   -0.4959    0.8335 O   0  0  0  0  0  2           0  0  0
    1.7661    1.1630   -2.0165 N   0  0  0  0  0  3           0  0  0
    1.4006    0.0000    0.0000 N   0  0  0  0  0  3           0  0  0
   -4.9119    0.5519   -1.2217 N   0  0  0  0  0  3           0  0  0
    4.0583    1.3278   -2.3070 C   0  0  0  0  0  4           0  0  0
    2.2149    0.5417   -0.9383 C   0  0  0  0  0  4           0  0  0
    2.8128    1.6120   -2.7984 C   0  0  0  0  0  4           0  0  0
    0.0000    0.0000    0.0000 C   0  0  0  0  0  4           0  0  0
   -2.8291   -0.0022   -0.1062 C   0  0  0  0  0  4           0  0  0
   -0.7663    0.0000    1.1751 C   0  0  0  0  0  4           0  0  0
   -0.6803    0.0026   -1.2282 C   0  0  0  0  0  4           0  0  0
   -2.1648   -0.0016    1.1246 C   0  0  0  0  0  4           0  0  0
   -2.0783    0.0009   -1.2854 C   0  0  0  0  0  4           0  0  0
   -4.3109   -0.0075   -0.1162 C   0  0  0  0  0  4           0  0  0
   -6.3472    0.6154   -1.3656 C   0  0  0  0  0  4           0  0  0
  1  7  1  0     0  0
  2  7  1  0     0  0
  2  8  1  0     0  0
  3 16  2  0     0  0
  4  8  2  0     0  0
  4  9  1  0     0  0
  5  8  1  0     0  0
  5 10  1  0     0  0
  6 16  1  0     0  0
  6 17  1  0     0  0
  7  9  2  0     0  0
 10 12  2  0     0  0
 10 13  1  0     0  0
 11 14  2  0     0  0
 11 15  1  0     0  0
 11 16  1  0     0  0
 12 14  1  0     0  0
 13 15  2  0     0  0
M  END
> <standard_type>
pIC50

> <# Confs.>
20

> <canonical_smiles>
O=C(NC)C1=CC=C(NC2=NC=C(Br)S2)C=C1

> <standard_relation>
=

> <Publication_ID>
nan

> <predicted_activity_value>
6.275724130399211

> <actual_activity_value>
6.236572006437063

> <Compound>
18

> <standard_units>
nM

> hash
586248102528039147

$$$$
17
XXILIB    08252103493D 0   0.00000     0.00000

 17 18  0     1  0            999 V2000
    5.6932   -1.8259   -3.1444 Br  0  0  0  0  0  1           0  0  0
    3.9540   -0.4865   -0.8427 S   0  0  0  0  0  2           0  0  0
   -4.9223    0.4761    0.8337 O   0  0  0  0  0  2           0  0  0
    1.7661   -1.1648   -2.0155 N   0  0  0  0  0  3           0  0  0
    1.4006    0.0000    0.0000 N   0  0  0  0  0  3           0  0  0
   -4.9079   -0.5707   -1.2220 N   0  0  0  0  0  3           0  0  0
    4.0583   -1.3340   -2.3034 C   0  0  0  0  0  4           0  0  0
    2.2149   -0.5417   -0.9383 C   0  0  0  0  0  4           0  0  0
    2.8128   -1.6175   -2.7952 C   0  0  0  0  0  4           0  0  0
    0.0000    0.0000    0.0000 C   0  0  0  0  0  4           0  0  0
   -2.8291   -0.0022   -0.1062 C   0  0  0  0  0  4           0  0  0
   -0.7663    0.0000    1.1751 C   0  0  0  0  0  4           0  0  0
   -0.6803    0.0026   -1.2282 C   0  0  0  0  0  4           0  0  0
   -2.1648   -0.0016    1.1246 C   0  0  0  0  0  4           0  0  0
   -2.0783    0.0009   -1.2854 C   0  0  0  0  0  4           0  0  0
   -4.3109   -0.0075   -0.1162 C   0  0  0  0  0  4           0  0  0
   -6.3426   -0.6442   -1.3661 C   0  0  0  0  0  4           0  0  0
  1  7  1  0     0  0
  2  7  1  0     0  0
  2  8  1  0     0  0
  3 16  2  0     0  0
  4  8  2  0     0  0
  4  9  1  0     0  0
  5  8  1  0     0  0
  5 10  1  0     0  0
  6 16  1  0     0  0
  6 17  1  0     0  0
  7  9  2  0     0  0
 10 12  2  0     0  0
 10 13  1  0     0  0
 11 14  2  0     0  0
 11 15  1  0     0  0
 11 16  1  0     0  0
 12 14  1  0     0  0
 13 15  2  0     0  0
M  END
> <standard_type>
pIC50

> <# Confs.>
20

> <canonical_smiles>
O=C(NC)C1=CC=C(NC2=NC=C(Br)S2)C=C1

> <standard_relation>
=

> <Publication_ID>
nan

> <predicted_activity_value>
6.275724130399211

> <actual_activity_value>
6.236572006437063

> <Compound>
18

> <standard_units>
nM

> hash
586248102528039147

$$$$
17
XXILIB    08252103493D 0   0.00000     0.00000

 17 18  0     1  0            999 V2000
    5.5561   -1.3230    3.5538 Br  0  0  0  0  0  1           0  0  0
    3.7980    0.0856    1.3083 S   0  0  0  0  0  2           0  0  0
   -4.9187   -0.4959    0.8335 O   0  0  0  0  0  2           0  0  0
    1.8842   -1.5979    1.6630 N   0  0  0  0  0  3           0  0  0
    1.4006   -0.0000    0.0000 N   0  0  0  0  0  3           0  0  0
   -4.9119    0.5519   -1.2217 N   0  0  0  0  0  3           0  0  0
    4.0006   -1.1224    2.4756 C   0  0  0  0  0  4           0  0  0
    2.2149   -0.5417    0.9383 C   0  0  0  0  0  4           0  0  0
    2.8985   -1.9315    2.5395 C   0  0  0  0  0  4           0  0  0
    0.0000    0.0000    0.0000 C   0  0  0  0  0  4           0  0  0
   -2.8291   -0.0022   -0.1062 C   0  0  0  0  0  4           0  0  0
   -0.7663    0.0000    1.1751 C   0  0  0  0  0  4           0  0  0
   -0.6803    0.0026   -1.2282 C   0  0  0  0  0  4           0  0  0
   -2.1648   -0.0016    1.1246 C   0  0  0  0  0  4           0  0  0
   -2.0783    0.0009   -1.2854 C   0  0  0  0  0  4           0  0  0
   -4.3109   -0.0075   -0.1162 C   0  0  0  0  0  4           0  0  0
   -6.3472    0.6154   -1.3656 C   0  0  0  0  0  4           0  0  0
  1  7  1  0     0  0
  2  7  1  0     0  0
  2  8  1  0     0  0
  3 16  2  0     0  0
  4  8  2  0     0  0
  4  9  1  0     0  0
  5  8  1  0     0  0
  5 10  1  0     0  0
  6 16  1  0     0  0
  6 17  1  0     0  0
  7  9  2  0     0  0
 10 12  2  0     0  0
 10 13  1  0     0  0
 11 14  2  0     0  0
 11 15  1  0     0  0
 11 16  1  0     0  0
 12 14  1  0     0  0
 13 15  2  0     0  0
M  END
> <standard_type>
pIC50

> <# Confs.>
20

> <canonical_smiles>
O=C(NC)C1=CC=C(NC2=NC=C(Br)S2)C=C1

> <standard_relation>
=

> <Publication_ID>
nan

> <predicted_activity_value>
6.275724130399211

> <actual_activity_value>
6.236572006437063

> <Compound>
18

> <standard_units>
nM

> hash
586248102528039147

$$$$
17
XXILIB    08252103493D 0   0.00000     0.00000

 17 18  0     1  0            999 V2000
    5.5633    1.3338    3.5413 Br  0  0  0  0  0  1           0  0  0
    3.7980   -0.0856    1.3083 S   0  0  0  0  0  2           0  0  0
   -4.9223    0.4761    0.8337 O   0  0  0  0  0  2           0  0  0
    1.8850    1.5992    1.6615 N   0  0  0  0  0  3           0  0  0
    1.4006    0.0000    0.0000 N   0  0  0  0  0  3           0  0  0
   -4.9079   -0.5707   -1.2220 N   0  0  0  0  0  3           0  0  0
    4.0035    1.1267    2.4706 C   0  0  0  0  0  4           0  0  0
    2.2149    0.5417    0.9383 C   0  0  0  0  0  4           0  0  0
    2.9010    1.9353    2.5352 C   0  0  0  0  0  4           0  0  0
    0.0000    0.0000    0.0000 C   0  0  0  0  0  4           0  0  0
   -2.8291   -0.0022   -0.1062 C   0  0  0  0  0  4           0  0  0
   -0.7663    0.0000    1.1751 C   0  0  0  0  0  4           0  0  0
   -0.6803    0.0026   -1.2282 C   0  0  0  0  0  4           0  0  0
   -2.1648   -0.0016    1.1246 C   0  0  0  0  0  4           0  0  0
   -2.0783    0.0009   -1.2854 C   0  0  0  0  0  4           0  0  0
   -4.3109   -0.0075   -0.1162 C   0  0  0  0  0  4           0  0  0
   -6.3426   -0.6442   -1.3661 C   0  0  0  0  0  4           0  0  0
  1  7  1  0     0  0
  2  7  1  0     0  0
  2  8  1  0     0  0
  3 16  2  0     0  0
  4  8  2  0     0  0
  4  9  1  0     0  0
  5  8  1  0     0  0
  5 10  1  0     0  0
  6 16  1  0     0  0
  6 17  1  0     0  0
  7  9  2  0     0  0
 10 12  2  0     0  0
 10 13  1  0     0  0
 11 14  2  0     0  0
 11 15  1  0     0  0
 11 16  1  0     0  0
 12 14  1  0     0  0
 13 15  2  0     0  0
M  END
> <standard_type>
pIC50

> <# Confs.>
20

> <canonical_smiles>
O=C(NC)C1=CC=C(NC2=NC=C(Br)S2)C=C1

> <standard_relation>
=

> <Publication_ID>
nan

> <predicted_activity_value>
6.275724130399211

> <actual_activity_value>
6.236572006437063

> <Compound>
18

> <standard_units>
nM

> hash
586248102528039147

$$$$
17
XXILIB    08252103493D 0   0.00000     0.00000

 17 18  0     1  0            999 V2000
    5.5633   -1.3338   -3.5413 Br  0  0  0  0  0  1           0  0  0
    3.7980    0.0856   -1.3083 S   0  0  0  0  0  2           0  0  0
   -4.9187   -0.4959    0.8335 O   0  0  0  0  0  2           0  0  0
    1.8850   -1.5992   -1.6615 N   0  0  0  0  0  3           0  0  0
    1.4006   -0.0000   -0.0000 N   0  0  0  0  0  3           0  0  0
   -4.9119    0.5519   -1.2217 N   0  0  0  0  0  3           0  0  0
    4.0035   -1.1267   -2.4706 C   0  0  0  0  0  4           0  0  0
    2.2149   -0.5417   -0.9383 C   0  0  0  0  0  4           0  0  0
    2.9010   -1.9353   -2.5352 C   0  0  0  0  0  4           0  0  0
    0.0000    0.0000    0.0000 C   0  0  0  0  0  4           0  0  0
   -2.8291   -0.0022   -0.1062 C   0  0  0  0  0  4           0  0  0
   -0.7663    0.0000    1.1751 C   0  0  0  0  0  4           0  0  0
   -0.6803    0.0026   -1.2282 C   0  0  0  0  0  4           0  0  0
   -2.1648   -0.0016    1.1246 C   0  0  0  0  0  4           0  0  0
   -2.0783    0.0009   -1.2854 C   0  0  0  0  0  4           0  0  0
   -4.3109   -0.0075   -0.1162 C   0  0  0  0  0  4           0  0  0
   -6.3472    0.6154   -1.3656 C   0  0  0  0  0  4           0  0  0
  1  7  1  0     0  0
  2  7  1  0     0  0
  2  8  1  0     0  0
  3 16  2  0     0  0
  4  8  2  0     0  0
  4  9  1  0     0  0
  5  8  1  0     0  0
  5 10  1  0     0  0
  6 16  1  0     0  0
  6 17  1  0     0  0
  7  9  2  0     0  0
 10 12  2  0     0  0
 10 13  1  0     0  0
 11 14  2  0     0  0
 11 15  1  0     0  0
 11 16  1  0     0  0
 12 14  1  0     0  0
 13 15  2  0     0  0
M  END
> <standard_type>
pIC50

> <# Confs.>
20

> <canonical_smiles>
O=C(NC)C1=CC=C(NC2=NC=C(Br)S2)C=C1

> <standard_relation>
=

> <Publication_ID>
nan

> <predicted_activity_value>
6.275724130399211

> <actual_activity_value>
6.236572006437063

> <Compound>
18

> <standard_units>
nM

> hash
586248102528039147

$$$$
17
XXILIB    08252103493D 0   0.00000     0.00000

 17 18  0     1  0            999 V2000
    5.5561    1.3230   -3.5538 Br  0  0  0  0  0  1           0  0  0
    3.7980   -0.0856   -1.3083 S   0  0  0  0  0  2           0  0  0
   -4.9223    0.4761    0.8337 O   0  0  0  0  0  2           0  0  0
    1.8842    1.5979   -1.6630 N   0  0  0  0  0  3           0  0  0
    1.4006    0.0000   -0.0000 N   0  0  0  0  0  3           0  0  0
   -4.9079   -0.5707   -1.2220 N   0  0  0  0  0  3           0  0  0
    4.0006    1.1224   -2.4756 C   0  0  0  0  0  4           0  0  0
    2.2149    0.5417   -0.9383 C   0  0  0  0  0  4           0  0  0
    2.8985    1.9315   -2.5395 C   0  0  0  0  0  4           0  0  0
    0.0000    0.0000    0.0000 C   0  0  0  0  0  4           0  0  0
   -2.8291   -0.0022   -0.1062 C   0  0  0  0  0  4           0  0  0
   -0.7663    0.0000    1.1751 C   0  0  0  0  0  4           0  0  0
   -0.6803    0.0026   -1.2282 C   0  0  0  0  0  4           0  0  0
   -2.1648   -0.0016    1.1246 C   0  0  0  0  0  4           0  0  0
   -2.0783    0.0009   -1.2854 C   0  0  0  0  0  4           0  0  0
   -4.3109   -0.0075   -0.1162 C   0  0  0  0  0  4           0  0  0
   -6.3426   -0.6442   -1.3661 C   0  0  0  0  0  4           0  0  0
  1  7  1  0     0  0
  2  7  1  0     0  0
  2  8  1  0     0  0
  3 16  2  0     0  0
  4  8  2  0     0  0
  4  9  1  0     0  0
  5  8  1  0     0  0
  5 10  1  0     0  0
  6 16  1  0     0  0
  6 17  1  0     0  0
  7  9  2  0     0  0
 10 12  2  0     0  0
 10 13  1  0     0  0
 11 14  2  0     0  0
 11 15  1  0     0  0
 11 16  1  0     0  0
 12 14  1  0     0  0
 13 15  2  0     0  0
M  END
> <standard_type>
pIC50

> <# Confs.>
20

> <canonical_smiles>
O=C(NC)C1=CC=C(NC2=NC=C(Br)S2)C=C1

> <standard_relation>
=

> <Publication_ID>
nan

> <predicted_activity_value>
6.275724130399211

> <actual_activity_value>
6.236572006437063

> <Compound>
18

> <standard_units>
nM

> hash
586248102528039147

$$$$
17
XXILIB    08252103493D 0   0.00000     0.00000

 17 18  0     1  0            999 V2000
    3.8299    3.0514    4.0540 Br  0  0  0  0  0  1           0  0  0
    1.7814    1.9337    1.8928 S   0  0  0  0  0  2           0  0  0
   -4.9187   -0.4959    0.8335 O   0  0  0  0  0  2           0  0  0
    3.4162    0.0639    1.2190 N   0  0  0  0  0  3           0  0  0
    1.4006    0.0000    0.0000 N   0  0  0  0  0  3           0  0  0
   -4.9119    0.5519   -1.2217 N   0  0  0  0  0  3           0  0  0
    3.2734    1.8506    2.6863 C   0  0  0  0  0  4           0  0  0
    2.2149    0.5417    0.9383 C   0  0  0  0  0  4           0  0  0
    4.0219    0.8066    2.2140 C   0  0  0  0  0  4           0  0  0
    0.0000    0.0000    0.0000 C   0  0  0  0  0  4           0  0  0
   -2.8291   -0.0022   -0.1062 C   0  0  0  0  0  4           0  0  0
   -0.7663    0.0000    1.1751 C   0  0  0  0  0  4           0  0  0
   -0.6803    0.0026   -1.2282 C   0  0  0  0  0  4           0  0  0
   -2.1648   -0.0016    1.1246 C   0  0  0  0  0  4           0  0  0
   -2.0783    0.0009   -1.2854 C   0  0  0  0  0  4           0  0  0
   -4.3109   -0.0075   -0.1162 C   0  0  0  0  0  4           0  0  0
   -6.3472    0.6154   -1.3656 C   0  0  0  0  0  4           0  0  0
  1  7  1  0     0  0
  2  7  1  0     0  0
  2  8  1  0     0  0
  3 16  2  0     0  0
  4  8  2  0     0  0
  4  9  1  0     0  0
  5  8  1  0     0  0
  5 10  1  0     0  0
  6 16  1  0     0  0
  6 17  1  0     0  0
  7  9  2  0     0  0
 10 12  2  0     0  0
 10 13  1  0     0  0
 11 14  2  0     0  0
 11 15  1  0     0  0
 11 16  1  0     0  0
 12 14  1  0     0  0
 13 15  2  0     0  0
M  END
> <standard_type>
pIC50

> <# Confs.>
20

> <canonical_smiles>
O=C(NC)C1=CC=C(NC2=NC=C(Br)S2)C=C1

> <standard_relation>
=

> <Publication_ID>
nan

> <predicted_activity_value>
6.275724130399211

> <actual_activity_value>
6.236572006437063

> <Compound>
18

> <standard_units>
nM

> hash
586248102528039147

$$$$
17
XXILIB    08252103493D 0   0.00000     0.00000

 17 18  0     1  0            999 V2000
    3.8371   -3.0622    4.0416 Br  0  0  0  0  0  1           0  0  0
    1.7814   -1.9337    1.8928 S   0  0  0  0  0  2           0  0  0
   -4.9187   -0.4959    0.8335 O   0  0  0  0  0  2           0  0  0
    3.4170   -0.0652    1.2175 N   0  0  0  0  0  3           0  0  0
    1.4006   -0.0000    0.0000 N   0  0  0  0  0  3           0  0  0
   -4.9119    0.5519   -1.2217 N   0  0  0  0  0  3           0  0  0
    3.2763   -1.8549    2.6814 C   0  0  0  0  0  4           0  0  0
    2.2149   -0.5417    0.9383 C   0  0  0  0  0  4           0  0  0
    4.0245   -0.8104    2.2096 C   0  0  0  0  0  4           0  0  0
    0.0000    0.0000    0.0000 C   0  0  0  0  0  4           0  0  0
   -2.8291   -0.0022   -0.1062 C   0  0  0  0  0  4           0  0  0
   -0.7663    0.0000    1.1751 C   0  0  0  0  0  4           0  0  0
   -0.6803    0.0026   -1.2282 C   0  0  0  0  0  4           0  0  0
   -2.1648   -0.0016    1.1246 C   0  0  0  0  0  4           0  0  0
   -2.0783    0.0009   -1.2854 C   0  0  0  0  0  4           0  0  0
   -4.3109   -0.0075   -0.1162 C   0  0  0  0  0  4           0  0  0
   -6.3472    0.6154   -1.3656 C   0  0  0  0  0  4           0  0  0
  1  7  1  0     0  0
  2  7  1  0     0  0
  2  8  1  0     0  0
  3 16  2  0     0  0
  4  8  2  0     0  0
  4  9  1  0     0  0
  5  8  1  0     0  0
  5 10  1  0     0  0
  6 16  1  0     0  0
  6 17  1  0     0  0
  7  9  2  0     0  0
 10 12  2  0     0  0
 10 13  1  0     0  0
 11 14  2  0     0  0
 11 15  1  0     0  0
 11 16  1  0     0  0
 12 14  1  0     0  0
 13 15  2  0     0  0
M  END
> <standard_type>
pIC50

> <# Confs.>
20

> <canonical_smiles>
O=C(NC)C1=CC=C(NC2=NC=C(Br)S2)C=C1

> <standard_relation>
=

> <Publication_ID>
nan

> <predicted_activity_value>
6.275724130399211

> <actual_activity_value>
6.236572006437063

> <Compound>
18

> <standard_units>
nM

> hash
586248102528039147

$$$$
17
XXILIB    08252103493D 0   0.00000     0.00000

 17 18  0     1  0            999 V2000
    3.7000   -4.4509    2.5593 Br  0  0  0  0  0  1           0  0  0
    1.6254   -2.3584    1.3616 S   0  0  0  0  0  2           0  0  0
   -4.9223    0.4761    0.8337 O   0  0  0  0  0  2           0  0  0
    3.5351   -0.8650    0.4982 N   0  0  0  0  0  3           0  0  0
    1.4006    0.0000    0.0000 N   0  0  0  0  0  3           0  0  0
   -4.9079   -0.5707   -1.2220 N   0  0  0  0  0  3           0  0  0
    3.2186   -2.8536    1.6434 C   0  0  0  0  0  4           0  0  0
    2.2149   -0.9383    0.5417 C   0  0  0  0  0  4           0  0  0
    4.1101   -1.9539    1.1244 C   0  0  0  0  0  4           0  0  0
    0.0000    0.0000    0.0000 C   0  0  0  0  0  4           0  0  0
   -2.8291   -0.0022   -0.1062 C   0  0  0  0  0  4           0  0  0
   -0.7663    0.0000    1.1751 C   0  0  0  0  0  4           0  0  0
   -0.6803    0.0026   -1.2282 C   0  0  0  0  0  4           0  0  0
   -2.1648   -0.0016    1.1246 C   0  0  0  0  0  4           0  0  0
   -2.0783    0.0009   -1.2854 C   0  0  0  0  0  4           0  0  0
   -4.3109   -0.0075   -0.1162 C   0  0  0  0  0  4           0  0  0
   -6.3426   -0.6442   -1.3661 C   0  0  0  0  0  4           0  0  0
  1  7  1  0     0  0
  2  7  1  0     0  0
  2  8  1  0     0  0
  3 16  2  0     0  0
  4  8  2  0     0  0
  4  9  1  0     0  0
  5  8  1  0     0  0
  5 10  1  0     0  0
  6 16  1  0     0  0
  6 17  1  0     0  0
  7  9  2  0     0  0
 10 12  2  0     0  0
 10 13  1  0     0  0
 11 14  2  0     0  0
 11 15  1  0     0  0
 11 16  1  0     0  0
 12 14  1  0     0  0
 13 15  2  0     0  0
M  END
> <standard_type>
pIC50

> <# Confs.>
20

> <canonical_smiles>
O=C(NC)C1=CC=C(NC2=NC=C(Br)S2)C=C1

> <standard_relation>
=

> <Publication_ID>
nan

> <predicted_activity_value>
6.275724130399211

> <actual_activity_value>
6.236572006437063

> <Compound>
18

> <standard_units>
nM

> hash
586248102528039147

$$$$
17
XXILIB    08252103493D 0   0.00000     0.00000

 17 18  0     1  0            999 V2000
    3.7000    5.1343    0.0090 Br  0  0  0  0  0  1           0  0  0
    1.6254    2.7233    0.0000 S   0  0  0  0  0  2           0  0  0
   -4.9187   -0.4959    0.8335 O   0  0  0  0  0  2           0  0  0
    3.5351    0.9982    0.0011 N   0  0  0  0  0  3           0  0  0
    1.4006    0.0000    0.0000 N   0  0  0  0  0  3           0  0  0
   -4.9119    0.5519   -1.2217 N   0  0  0  0  0  3           0  0  0
    3.2186    3.2930    0.0036 C   0  0  0  0  0  4           0  0  0
    2.2149    1.0834    0.0000 C   0  0  0  0  0  4           0  0  0
    4.1101    2.2544    0.0032 C   0  0  0  0  0  4           0  0  0
    0.0000    0.0000    0.0000 C   0  0  0  0  0  4           0  0  0
   -2.8291   -0.0022   -0.1062 C   0  0  0  0  0  4           0  0  0
   -0.7663    0.0000    1.1751 C   0  0  0  0  0  4           0  0  0
   -0.6803    0.0026   -1.2282 C   0  0  0  0  0  4           0  0  0
   -2.1648   -0.0016    1.1246 C   0  0  0  0  0  4           0  0  0
   -2.0783    0.0009   -1.2854 C   0  0  0  0  0  4           0  0  0
   -4.3109   -0.0075   -0.1162 C   0  0  0  0  0  4           0  0  0
   -6.3472    0.6154   -1.3656 C   0  0  0  0  0  4           0  0  0
  1  7  1  0     0  0
  2  7  1  0     0  0
  2  8  1  0     0  0
  3 16  2  0     0  0
  4  8  2  0     0  0
  4  9  1  0     0  0
  5  8  1  0     0  0
  5 10  1  0     0  0
  6 16  1  0     0  0
  6 17  1  0     0  0
  7  9  2  0     0  0
 10 12  2  0     0  0
 10 13  1  0     0  0
 11 14  2  0     0  0
 11 15  1  0     0  0
 11 16  1  0     0  0
 12 14  1  0     0  0
 13 15  2  0     0  0
M  END
> <standard_type>
pIC50

> <# Confs.>
20

> <canonical_smiles>
O=C(NC)C1=CC=C(NC2=NC=C(Br)S2)C=C1

> <standard_relation>
=

> <Publication_ID>
nan

> <predicted_activity_value>
6.275724130399211

> <actual_activity_value>
6.236572006437063

> <Compound>
18

> <standard_units>
nM

> hash
586248102528039147

$$$$
17
XXILIB    08252103493D 0   0.00000     0.00000

 17 18  0     1  0            999 V2000
    3.8299   -3.0514   -4.0540 Br  0  0  0  0  0  1           0  0  0
    1.7814   -1.9337   -1.8928 S   0  0  0  0  0  2           0  0  0
   -4.9187   -0.4959    0.8335 O   0  0  0  0  0  2           0  0  0
    3.4162   -0.0639   -1.2190 N   0  0  0  0  0  3           0  0  0
    1.4006   -0.0000   -0.0000 N   0  0  0  0  0  3           0  0  0
   -4.9119    0.5519   -1.2217 N   0  0  0  0  0  3           0  0  0
    3.2734   -1.8506   -2.6863 C   0  0  0  0  0  4           0  0  0
    2.2149   -0.5417   -0.9383 C   0  0  0  0  0  4           0  0  0
    4.0219   -0.8066   -2.2140 C   0  0  0  0  0  4           0  0  0
    0.0000    0.0000    0.0000 C   0  0  0  0  0  4           0  0  0
   -2.8291   -0.0022   -0.1062 C   0  0  0  0  0  4           0  0  0
   -0.7663    0.0000    1.1751 C   0  0  0  0  0  4           0  0  0
   -0.6803    0.0026   -1.2282 C   0  0  0  0  0  4           0  0  0
   -2.1648   -0.0016    1.1246 C   0  0  0  0  0  4           0  0  0
   -2.0783    0.0009   -1.2854 C   0  0  0  0  0  4           0  0  0
   -4.3109   -0.0075   -0.1162 C   0  0  0  0  0  4           0  0  0
   -6.3472    0.6154   -1.3656 C   0  0  0  0  0  4           0  0  0
  1  7  1  0     0  0
  2  7  1  0     0  0
  2  8  1  0     0  0
  3 16  2  0     0  0
  4  8  2  0     0  0
  4  9  1  0     0  0
  5  8  1  0     0  0
  5 10  1  0     0  0
  6 16  1  0     0  0
  6 17  1  0     0  0
  7  9  2  0     0  0
 10 12  2  0     0  0
 10 13  1  0     0  0
 11 14  2  0     0  0
 11 15  1  0     0  0
 11 16  1  0     0  0
 12 14  1  0     0  0
 13 15  2  0     0  0
M  END
> <standard_type>
pIC50

> <# Confs.>
20

> <canonical_smiles>
O=C(NC)C1=CC=C(NC2=NC=C(Br)S2)C=C1

> <standard_relation>
=

> <Publication_ID>
nan

> <predicted_activity_value>
6.275724130399211

> <actual_activity_value>
6.236572006437063

> <Compound>
18

> <standard_units>
nM

> hash
586248102528039147

$$$$
17
XXILIB    08252103493D 0   0.00000     0.00000

 17 18  0     1  0            999 V2000
    3.8371    3.0622   -4.0416 Br  0  0  0  0  0  1           0  0  0
    1.7814    1.9337   -1.8928 S   0  0  0  0  0  2           0  0  0
   -4.9187   -0.4959    0.8335 O   0  0  0  0  0  2           0  0  0
    3.4170    0.0652   -1.2175 N   0  0  0  0  0  3           0  0  0
    1.4006    0.0000   -0.0000 N   0  0  0  0  0  3           0  0  0
   -4.9119    0.5519   -1.2217 N   0  0  0  0  0  3           0  0  0
    3.2763    1.8549   -2.6814 C   0  0  0  0  0  4           0  0  0
    2.2149    0.5417   -0.9383 C   0  0  0  0  0  4           0  0  0
    4.0245    0.8104   -2.2096 C   0  0  0  0  0  4           0  0  0
    0.0000    0.0000    0.0000 C   0  0  0  0  0  4           0  0  0
   -2.8291   -0.0022   -0.1062 C   0  0  0  0  0  4           0  0  0
   -0.7663    0.0000    1.1751 C   0  0  0  0  0  4           0  0  0
   -0.6803    0.0026   -1.2282 C   0  0  0  0  0  4           0  0  0
   -2.1648   -0.0016    1.1246 C   0  0  0  0  0  4           0  0  0
   -2.0783    0.0009   -1.2854 C   0  0  0  0  0  4           0  0  0
   -4.3109   -0.0075   -0.1162 C   0  0  0  0  0  4           0  0  0
   -6.3472    0.6154   -1.3656 C   0  0  0  0  0  4           0  0  0
  1  7  1  0     0  0
  2  7  1  0     0  0
  2  8  1  0     0  0
  3 16  2  0     0  0
  4  8  2  0     0  0
  4  9  1  0     0  0
  5  8  1  0     0  0
  5 10  1  0     0  0
  6 16  1  0     0  0
  6 17  1  0     0  0
  7  9  2  0     0  0
 10 12  2  0     0  0
 10 13  1  0     0  0
 11 14  2  0     0  0
 11 15  1  0     0  0
 11 16  1  0     0  0
 12 14  1  0     0  0
 13 15  2  0     0  0
M  END
> <standard_type>
pIC50

> <# Confs.>
20

> <canonical_smiles>
O=C(NC)C1=CC=C(NC2=NC=C(Br)S2)C=C1

> <standard_relation>
=

> <Publication_ID>
nan

> <predicted_activity_value>
6.275724130399211

> <actual_activity_value>
6.236572006437063

> <Compound>
18

> <standard_units>
nM

> hash
586248102528039147

$$$$
17
XXILIB    08252103493D 0   0.00000     0.00000

 17 18  0     1  0            999 V2000
    5.6932    3.6361   -0.0090 Br  0  0  0  0  0  1           0  0  0
    3.9540    0.9730   -0.0000 S   0  0  0  0  0  2           0  0  0
   -4.9187   -0.4959    0.8335 O   0  0  0  0  0  2           0  0  0
    1.7661    2.3279   -0.0011 N   0  0  0  0  0  3           0  0  0
    1.4006    0.0000    0.0000 N   0  0  0  0  0  3           0  0  0
   -4.9119    0.5519   -1.2217 N   0  0  0  0  0  3           0  0  0
    4.0583    2.6618   -0.0036 C   0  0  0  0  0  4           0  0  0
    2.2149    1.0834    0.0000 C   0  0  0  0  0  4           0  0  0
    2.8128    3.2294   -0.0032 C   0  0  0  0  0  4           0  0  0
    0.0000    0.0000    0.0000 C   0  0  0  0  0  4           0  0  0
   -2.8291   -0.0022   -0.1062 C   0  0  0  0  0  4           0  0  0
   -0.7663    0.0000    1.1751 C   0  0  0  0  0  4           0  0  0
   -0.6803    0.0026   -1.2282 C   0  0  0  0  0  4           0  0  0
   -2.1648   -0.0016    1.1246 C   0  0  0  0  0  4           0  0  0
   -2.0783    0.0009   -1.2854 C   0  0  0  0  0  4           0  0  0
   -4.3109   -0.0075   -0.1162 C   0  0  0  0  0  4           0  0  0
   -6.3472    0.6154   -1.3656 C   0  0  0  0  0  4           0  0  0
  1  7  1  0     0  0
  2  7  1  0     0  0
  2  8  1  0     0  0
  3 16  2  0     0  0
  4  8  2  0     0  0
  4  9  1  0     0  0
  5  8  1  0     0  0
  5 10  1  0     0  0
  6 16  1  0     0  0
  6 17  1  0     0  0
  7  9  2  0     0  0
 10 12  2  0     0  0
 10 13  1  0     0  0
 11 14  2  0     0  0
 11 15  1  0     0  0
 11 16  1  0     0  0
 12 14  1  0     0  0
 13 15  2  0     0  0
M  END
> <standard_type>
pIC50

> <# Confs.>
20

> <canonical_smiles>
O=C(NC)C1=CC=C(NC2=NC=C(Br)S2)C=C1

> <standard_relation>
=

> <Publication_ID>
nan

> <predicted_activity_value>
6.275724130399211

> <actual_activity_value>
6.236572006437063

> <Compound>
18

> <standard_units>
nM

> hash
586248102528039147

$$$$
17
XXILIB    08252103493D 0   0.00000     0.00000

 17 18  0     1  0            999 V2000
    5.6932   -3.6361    0.0090 Br  0  0  0  0  0  1           0  0  0
    3.9540   -0.9730    0.0000 S   0  0  0  0  0  2           0  0  0
   -4.9223    0.4761    0.8337 O   0  0  0  0  0  2           0  0  0
    1.7661   -2.3279    0.0011 N   0  0  0  0  0  3           0  0  0
    1.4006    0.0000    0.0000 N   0  0  0  0  0  3           0  0  0
   -4.9079   -0.5707   -1.2220 N   0  0  0  0  0  3           0  0  0
    4.0583   -2.6618    0.0036 C   0  0  0  0  0  4           0  0  0
    2.2149   -1.0834    0.0000 C   0  0  0  0  0  4           0  0  0
    2.8128   -3.2294    0.0032 C   0  0  0  0  0  4           0  0  0
    0.0000    0.0000    0.0000 C   0  0  0  0  0  4           0  0  0
   -2.8291   -0.0022   -0.1062 C   0  0  0  0  0  4           0  0  0
   -0.7663    0.0000    1.1751 C   0  0  0  0  0  4           0  0  0
   -0.6803    0.0026   -1.2282 C   0  0  0  0  0  4           0  0  0
   -2.1648   -0.0016    1.1246 C   0  0  0  0  0  4           0  0  0
   -2.0783    0.0009   -1.2854 C   0  0  0  0  0  4           0  0  0
   -4.3109   -0.0075   -0.1162 C   0  0  0  0  0  4           0  0  0
   -6.3426   -0.6442   -1.3661 C   0  0  0  0  0  4           0  0  0
  1  7  1  0     0  0
  2  7  1  0     0  0
  2  8  1  0     0  0
  3 16  2  0     0  0
  4  8  2  0     0  0
  4  9  1  0     0  0
  5  8  1  0     0  0
  5 10  1  0     0  0
  6 16  1  0     0  0
  6 17  1  0     0  0
  7  9  2  0     0  0
 10 12  2  0     0  0
 10 13  1  0     0  0
 11 14  2  0     0  0
 11 15  1  0     0  0
 11 16  1  0     0  0
 12 14  1  0     0  0
 13 15  2  0     0  0
M  END
> <standard_type>
pIC50

> <# Confs.>
20

> <canonical_smiles>
O=C(NC)C1=CC=C(NC2=NC=C(Br)S2)C=C1

> <standard_relation>
=

> <Publication_ID>
nan

> <predicted_activity_value>
6.275724130399211

> <actual_activity_value>
6.236572006437063

> <Compound>
18

> <standard_units>
nM

> hash
586248102528039147

$$$$
17
XXILIB    08252103493D 0   0.00000     0.00000

 17 18  0     1  0            999 V2000
    3.8371    5.0312    0.6312 Br  0  0  0  0  0  1           0  0  0
    1.7814    2.6060    0.7283 S   0  0  0  0  0  2           0  0  0
   -4.9223    0.4761    0.8337 O   0  0  0  0  0  2           0  0  0
    3.4170    1.0870   -0.5523 N   0  0  0  0  0  3           0  0  0
    1.4006    0.0000    0.0000 N   0  0  0  0  0  3           0  0  0
   -4.9079   -0.5707   -1.2220 N   0  0  0  0  0  3           0  0  0
    3.2763    3.2496    0.2657 C   0  0  0  0  0  4           0  0  0
    2.2149    1.0834    0.0000 C   0  0  0  0  0  4           0  0  0
    4.0245    2.3188   -0.4030 C   0  0  0  0  0  4           0  0  0
    0.0000    0.0000    0.0000 C   0  0  0  0  0  4           0  0  0
   -2.8291   -0.0022   -0.1062 C   0  0  0  0  0  4           0  0  0
   -0.7663    0.0000    1.1751 C   0  0  0  0  0  4           0  0  0
   -0.6803    0.0026   -1.2282 C   0  0  0  0  0  4           0  0  0
   -2.1648   -0.0016    1.1246 C   0  0  0  0  0  4           0  0  0
   -2.0783    0.0009   -1.2854 C   0  0  0  0  0  4           0  0  0
   -4.3109   -0.0075   -0.1162 C   0  0  0  0  0  4           0  0  0
   -6.3426   -0.6442   -1.3661 C   0  0  0  0  0  4           0  0  0
  1  7  1  0     0  0
  2  7  1  0     0  0
  2  8  1  0     0  0
  3 16  2  0     0  0
  4  8  2  0     0  0
  4  9  1  0     0  0
  5  8  1  0     0  0
  5 10  1  0     0  0
  6 16  1  0     0  0
  6 17  1  0     0  0
  7  9  2  0     0  0
 10 12  2  0     0  0
 10 13  1  0     0  0
 11 14  2  0     0  0
 11 15  1  0     0  0
 11 16  1  0     0  0
 12 14  1  0     0  0
 13 15  2  0     0  0
M  END
> <standard_type>
pIC50

> <# Confs.>
20

> <canonical_smiles>
O=C(NC)C1=CC=C(NC2=NC=C(Br)S2)C=C1

> <standard_relation>
=

> <Publication_ID>
nan

> <predicted_activity_value>
6.275724130399211

> <actual_activity_value>
6.236572006437063

> <Compound>
18

> <standard_units>
nM

> hash
586248102528039147

$$$$
17
XXILIB    08252103493D 0   0.00000     0.00000

 17 18  0     1  0            999 V2000
    3.7000    2.5593    4.4509 Br  0  0  0  0  0  1           0  0  0
    1.6254    1.3616    2.3584 S   0  0  0  0  0  2           0  0  0
   -4.9223    0.4761    0.8337 O   0  0  0  0  0  2           0  0  0
    3.5351    0.4982    0.8650 N   0  0  0  0  0  3           0  0  0
    1.4006    0.0000    0.0000 N   0  0  0  0  0  3           0  0  0
   -4.9079   -0.5707   -1.2220 N   0  0  0  0  0  3           0  0  0
    3.2186    1.6434    2.8536 C   0  0  0  0  0  4           0  0  0
    2.2149    0.5417    0.9383 C   0  0  0  0  0  4           0  0  0
    4.1101    1.1244    1.9539 C   0  0  0  0  0  4           0  0  0
    0.0000    0.0000    0.0000 C   0  0  0  0  0  4           0  0  0
   -2.8291   -0.0022   -0.1062 C   0  0  0  0  0  4           0  0  0
   -0.7663    0.0000    1.1751 C   0  0  0  0  0  4           0  0  0
   -0.6803    0.0026   -1.2282 C   0  0  0  0  0  4           0  0  0
   -2.1648   -0.0016    1.1246 C   0  0  0  0  0  4           0  0  0
   -2.0783    0.0009   -1.2854 C   0  0  0  0  0  4           0  0  0
   -4.3109   -0.0075   -0.1162 C   0  0  0  0  0  4           0  0  0
   -6.3426   -0.6442   -1.3661 C   0  0  0  0  0  4           0  0  0
  1  7  1  0     0  0
  2  7  1  0     0  0
  2  8  1  0     0  0
  3 16  2  0     0  0
  4  8  2  0     0  0
  4  9  1  0     0  0
  5  8  1  0     0  0
  5 10  1  0     0  0
  6 16  1  0     0  0
  6 17  1  0     0  0
  7  9  2  0     0  0
 10 12  2  0     0  0
 10 13  1  0     0  0
 11 14  2  0     0  0
 11 15  1  0     0  0
 11 16  1  0     0  0
 12 14  1  0     0  0
 13 15  2  0     0  0
M  END
> <standard_type>
pIC50

> <# Confs.>
20

> <canonical_smiles>
O=C(NC)C1=CC=C(NC2=NC=C(Br)S2)C=C1

> <standard_relation>
=

> <Publication_ID>
nan

> <predicted_activity_value>
6.275724130399211

> <actual_activity_value>
6.236572006437063

> <Compound>
18

> <standard_units>
nM

> hash
586248102528039147

$$$$
17
XXILIB    08252103493D 0   0.00000     0.00000

 17 18  0     1  0            999 V2000
    5.5633   -3.7337   -0.6156 Br  0  0  0  0  0  1           0  0  0
    3.7980   -1.0903   -0.7283 S   0  0  0  0  0  2           0  0  0
   -4.9187   -0.4959    0.8335 O   0  0  0  0  0  2           0  0  0
    1.8850   -2.2385    0.5542 N   0  0  0  0  0  3           0  0  0
    1.4006   -0.0000    0.0000 N   0  0  0  0  0  3           0  0  0
   -4.9119    0.5519   -1.2217 N   0  0  0  0  0  3           0  0  0
    4.0035   -2.7030   -0.2595 C   0  0  0  0  0  4           0  0  0
    2.2149   -1.0834    0.0000 C   0  0  0  0  0  4           0  0  0
    2.9010   -3.1632    0.4085 C   0  0  0  0  0  4           0  0  0
    0.0000    0.0000    0.0000 C   0  0  0  0  0  4           0  0  0
   -2.8291   -0.0022   -0.1062 C   0  0  0  0  0  4           0  0  0
   -0.7663    0.0000    1.1751 C   0  0  0  0  0  4           0  0  0
   -0.6803    0.0026   -1.2282 C   0  0  0  0  0  4           0  0  0
   -2.1648   -0.0016    1.1246 C   0  0  0  0  0  4           0  0  0
   -2.0783    0.0009   -1.2854 C   0  0  0  0  0  4           0  0  0
   -4.3109   -0.0075   -0.1162 C   0  0  0  0  0  4           0  0  0
   -6.3472    0.6154   -1.3656 C   0  0  0  0  0  4           0  0  0
  1  7  1  0     0  0
  2  7  1  0     0  0
  2  8  1  0     0  0
  3 16  2  0     0  0
  4  8  2  0     0  0
  4  9  1  0     0  0
  5  8  1  0     0  0
  5 10  1  0     0  0
  6 16  1  0     0  0
  6 17  1  0     0  0
  7  9  2  0     0  0
 10 12  2  0     0  0
 10 13  1  0     0  0
 11 14  2  0     0  0
 11 15  1  0     0  0
 11 16  1  0     0  0
 12 14  1  0     0  0
 13 15  2  0     0  0
M  END
> <standard_type>
pIC50

> <# Confs.>
20

> <canonical_smiles>
O=C(NC)C1=CC=C(NC2=NC=C(Br)S2)C=C1

> <standard_relation>
=

> <Publication_ID>
nan

> <predicted_activity_value>
6.275724130399211

> <actual_activity_value>
6.236572006437063

> <Compound>
18

> <standard_units>
nM

> hash
586248102528039147

$$$$
17
XXILIB    08252103493D 0   0.00000     0.00000

 17 18  0     1  0            999 V2000
    5.5561    3.7392   -0.6312 Br  0  0  0  0  0  1           0  0  0
    3.7980    1.0903   -0.7283 S   0  0  0  0  0  2           0  0  0
   -4.9223    0.4761    0.8337 O   0  0  0  0  0  2           0  0  0
    1.8842    2.2391    0.5523 N   0  0  0  0  0  3           0  0  0
    1.4006    0.0000    0.0000 N   0  0  0  0  0  3           0  0  0
   -4.9079   -0.5707   -1.2220 N   0  0  0  0  0  3           0  0  0
    4.0006    2.7051   -0.2657 C   0  0  0  0  0  4           0  0  0
    2.2149    1.0834    0.0000 C   0  0  0  0  0  4           0  0  0
    2.8985    3.1651    0.4030 C   0  0  0  0  0  4           0  0  0
    0.0000    0.0000    0.0000 C   0  0  0  0  0  4           0  0  0
   -2.8291   -0.0022   -0.1062 C   0  0  0  0  0  4           0  0  0
   -0.7663    0.0000    1.1751 C   0  0  0  0  0  4           0  0  0
   -0.6803    0.0026   -1.2282 C   0  0  0  0  0  4           0  0  0
   -2.1648   -0.0016    1.1246 C   0  0  0  0  0  4           0  0  0
   -2.0783    0.0009   -1.2854 C   0  0  0  0  0  4           0  0  0
   -4.3109   -0.0075   -0.1162 C   0  0  0  0  0  4           0  0  0
   -6.3426   -0.6442   -1.3661 C   0  0  0  0  0  4           0  0  0
  1  7  1  0     0  0
  2  7  1  0     0  0
  2  8  1  0     0  0
  3 16  2  0     0  0
  4  8  2  0     0  0
  4  9  1  0     0  0
  5  8  1  0     0  0
  5 10  1  0     0  0
  6 16  1  0     0  0
  6 17  1  0     0  0
  7  9  2  0     0  0
 10 12  2  0     0  0
 10 13  1  0     0  0
 11 14  2  0     0  0
 11 15  1  0     0  0
 11 16  1  0     0  0
 12 14  1  0     0  0
 13 15  2  0     0  0
M  END
> <standard_type>
pIC50

> <# Confs.>
20

> <canonical_smiles>
O=C(NC)C1=CC=C(NC2=NC=C(Br)S2)C=C1

> <standard_relation>
=

> <Publication_ID>
nan

> <predicted_activity_value>
6.275724130399211

> <actual_activity_value>
6.236572006437063

> <Compound>
18

> <standard_units>
nM

> hash
586248102528039147

$$$$
16
XXILIB    08252103493D 0   0.00000     0.00000

 32 35  0     1  0            999 V2000
   -2.5206    4.4265    1.0560 F   0  0  0  0  0  1           0  0  0
   -2.2375    6.6012    0.3487 F   0  0  0  0  0  1           0  0  0
   -2.5453    6.9059   -1.7776 F   0  0  0  0  0  1           0  0  0
   -4.0646    7.5438   -0.3589 F   0  0  0  0  0  1           0  0  0
   -4.2101    1.7200    2.1113 O   0  0  0  0  0  2           0  0  0
    4.6334    2.6060   -6.9161 N   0  0  0  0  0  3           0  0  0
    3.8928    1.9395   -6.0173 N   0  0  0  0  0  3           0  0  0
    2.4101    1.2112   -1.9026 N   0  0  0  0  0  3           0  0  0
    3.3115    2.5014   -3.7307 N   0  0  0  0  0  3           0  0  0
   -2.6060    1.0723    0.5476 N   0  0  1  0  0  3           0  0  0
   -0.0000    0.0000    0.0000 N   0  0  1  0  0  3           0  0  0
   -3.4757    4.1761    0.1457 C   0  0  0  0  0  4           0  0  0
    3.9161    2.7239   -4.9278 C   0  0  0  0  0  4           0  0  0
    3.0262    1.2601   -3.1142 C   0  0  0  0  0  4           0  0  0
    2.1376    0.0000   -1.3531 C   0  0  0  0  0  4           0  0  0
    5.1326    3.7850   -6.4558 C   0  0  0  0  0  4           0  0  0
   -3.8488    5.2081   -0.7254 C   0  0  0  0  0  4           0  0  0
   -4.0760    2.9111    0.0835 C   0  0  0  0  0  4           0  0  0
    4.6870    3.8943   -5.1624 C   0  0  0  0  0  4           0  0  0
    3.3758    0.0908   -3.7926 C   0  0  0  0  0  4           0  0  0
    2.4712   -1.1971   -1.9748 C   0  0  0  0  0  4           0  0  0
   -4.8385    4.9592   -1.6797 C   0  0  0  0  0  4           0  0  0
   -5.0676    2.6838   -0.8781 C   0  0  0  0  0  4           0  0  0
    3.0967   -1.1426   -3.2123 C   0  0  0  0  0  4           0  0  0
   -5.4441    3.7046   -1.7538 C   0  0  0  0  0  4           0  0  0
   -3.1831    6.5423   -0.6302 C   0  0  2  0  0  4           0  0  0
   -3.6483    1.8441    1.0299 C   0  0  0  0  0  4           0  0  0
    1.4664    0.0000   -0.0000 C   0  0  0  0  0  4           0  0  0
   -2.0719   -0.0181    1.3574 C   0  0  0  0  0  4           0  0  0
   -2.0329    1.1727   -0.7970 C   0  0  0  0  0  4           0  0  0
   -0.5431    0.0000    1.3715 C   0  0  0  0  0  4           0  0  0
   -0.5046    1.1698   -0.7407 C   0  0  0  0  0  4           0  0  0
  1 12  1  0     0  0
  2 26  1  0     0  0
  3 26  1  0     0  0
  4 26  1  0     0  0
  5 27  2  0     0  0
  6  7  1  0     0  0
  6 16  1  0     0  0
  7 13  2  0     0  0
  8 14  1  0     0  0
  8 15  2  0     0  0
  9 13  1  0     0  0
  9 14  1  0     0  0
 10 27  1  0     0  0
 10 29  1  0     0  0
 10 30  1  0     0  0
 11 28  1  0     0  0
 11 31  1  0     0  0
 11 32  1  0     0  0
 12 17  1  0     0  0
 12 18  2  0     0  0
 13 19  1  0     0  0
 14 20  2  0     0  0
 15 21  1  0     0  0
 15 28  1  0     0  0
 16 19  2  0     0  0
 17 22  2  0     0  0
 17 26  1  0     0  0
 18 23  1  0     0  0
 18 27  1  0     0  0
 20 24  1  0     0  0
 21 24  2  0     0  0
 22 25  1  0     0  0
 23 25  2  0     0  0
 29 31  1  0     0  0
 30 32  1  0     0  0
M  END
> <standard_type>
pIC50

> <# Confs.>
25

> <canonical_smiles>
FC1=C(C(N2CCN(CC3=NC(NC4=NNC=C4)=CC=C3)CC2)=O)C=CC=C1C(F)(F)F

> <standard_relation>
=

> <Publication_ID>
nan

> <predicted_activity_value>
6.292429823902063

> <actual_activity_value>
6.275724130399211

> <Compound>
17

> <standard_units>
nM

> hash
1549603100698601883

$$$$
16
XXILIB    08252103493D 0   0.00000     0.00000

 32 35  0     1  0            999 V2000
   -2.5206    4.4265    1.0560 F   0  0  0  0  0  1           0  0  0
   -2.2375    6.6012    0.3487 F   0  0  0  0  0  1           0  0  0
   -2.5453    6.9059   -1.7776 F   0  0  0  0  0  1           0  0  0
   -4.0646    7.5438   -0.3589 F   0  0  0  0  0  1           0  0  0
   -4.2101    1.7200    2.1113 O   0  0  0  0  0  2           0  0  0
    5.0565   -4.5047    5.6100 N   0  0  0  0  0  3           0  0  0
    4.7891   -3.8564    4.4660 N   0  0  0  0  0  3           0  0  0
    2.4101   -1.0421    2.0002 N   0  0  0  0  0  3           0  0  0
    3.3203   -1.9764    4.0295 N   0  0  0  0  0  3           0  0  0
   -2.6060    1.0723    0.5476 N   0  0  1  0  0  3           0  0  0
   -0.0000    0.0000    0.0000 N   0  0  1  0  0  3           0  0  0
   -3.4757    4.1761    0.1457 C   0  0  0  0  0  4           0  0  0
    3.9075   -2.9093    4.8250 C   0  0  0  0  0  4           0  0  0
    3.0020   -2.0773    2.6543 C   0  0  0  0  0  4           0  0  0
    2.1376   -1.1718    0.6765 C   0  0  0  0  0  4           0  0  0
    4.3880   -4.0183    6.6905 C   0  0  0  0  0  4           0  0  0
   -3.8488    5.2081   -0.7254 C   0  0  0  0  0  4           0  0  0
   -4.0760    2.9111    0.0835 C   0  0  0  0  0  4           0  0  0
    3.6279   -2.9786    6.2164 C   0  0  0  0  0  4           0  0  0
    3.3306   -3.2585    1.9861 C   0  0  0  0  0  4           0  0  0
    2.4307   -2.3262   -0.0392 C   0  0  0  0  0  4           0  0  0
   -4.8385    4.9592   -1.6797 C   0  0  0  0  0  4           0  0  0
   -5.0676    2.6838   -0.8781 C   0  0  0  0  0  4           0  0  0
    3.0375   -3.3787    0.6314 C   0  0  0  0  0  4           0  0  0
   -5.4441    3.7046   -1.7538 C   0  0  0  0  0  4           0  0  0
   -3.1831    6.5423   -0.6302 C   0  0  2  0  0  4           0  0  0
   -3.6483    1.8441    1.0299 C   0  0  0  0  0  4           0  0  0
    1.4664    0.0000   -0.0000 C   0  0  0  0  0  4           0  0  0
   -2.0719   -0.0181    1.3574 C   0  0  0  0  0  4           0  0  0
   -2.0329    1.1727   -0.7970 C   0  0  0  0  0  4           0  0  0
   -0.5431    0.0000    1.3715 C   0  0  0  0  0  4           0  0  0
   -0.5046    1.1698   -0.7407 C   0  0  0  0  0  4           0  0  0
  1 12  1  0     0  0
  2 26  1  0     0  0
  3 26  1  0     0  0
  4 26  1  0     0  0
  5 27  2  0     0  0
  6  7  1  0     0  0
  6 16  1  0     0  0
  7 13  2  0     0  0
  8 14  1  0     0  0
  8 15  2  0     0  0
  9 13  1  0     0  0
  9 14  1  0     0  0
 10 27  1  0     0  0
 10 29  1  0     0  0
 10 30  1  0     0  0
 11 28  1  0     0  0
 11 31  1  0     0  0
 11 32  1  0     0  0
 12 17  1  0     0  0
 12 18  2  0     0  0
 13 19  1  0     0  0
 14 20  2  0     0  0
 15 21  1  0     0  0
 15 28  1  0     0  0
 16 19  2  0     0  0
 17 22  2  0     0  0
 17 26  1  0     0  0
 18 23  1  0     0  0
 18 27  1  0     0  0
 20 24  1  0     0  0
 21 24  2  0     0  0
 22 25  1  0     0  0
 23 25  2  0     0  0
 29 31  1  0     0  0
 30 32  1  0     0  0
M  END
> <standard_type>
pIC50

> <# Confs.>
25

> <canonical_smiles>
FC1=C(C(N2CCN(CC3=NC(NC4=NNC=C4)=CC=C3)CC2)=O)C=CC=C1C(F)(F)F

> <standard_relation>
=

> <Publication_ID>
nan

> <predicted_activity_value>
6.292429823902063

> <actual_activity_value>
6.275724130399211

> <Compound>
17

> <standard_units>
nM

> hash
1549603100698601883

$$$$
16
XXILIB    08252103493D 0   0.00000     0.00000

 32 35  0     1  0            999 V2000
   -2.5206    4.4265    1.0560 F   0  0  0  0  0  1           0  0  0
   -2.2375    6.6012    0.3487 F   0  0  0  0  0  1           0  0  0
   -2.5453    6.9059   -1.7776 F   0  0  0  0  0  1           0  0  0
   -4.0646    7.5438   -0.3589 F   0  0  0  0  0  1           0  0  0
   -4.2101    1.7200    2.1113 O   0  0  0  0  0  2           0  0  0
    5.4705   -3.7663    5.6761 N   0  0  0  0  0  3           0  0  0
    4.7092   -3.4644    4.6131 N   0  0  0  0  0  3           0  0  0
    3.1774   -0.8899    1.5027 N   0  0  0  0  0  3           0  0  0
    4.9035   -1.6644    2.9993 N   0  0  0  0  0  3           0  0  0
   -2.6060    1.0723    0.5476 N   0  0  1  0  0  3           0  0  0
   -0.0000    0.0000    0.0000 N   0  0  1  0  0  3           0  0  0
   -3.4757    4.1761    0.1457 C   0  0  0  0  0  4           0  0  0
    5.2893   -2.3696    4.0956 C   0  0  0  0  0  4           0  0  0
    3.8038   -1.9126    2.1441 C   0  0  0  0  0  4           0  0  0
    2.1376   -1.1718    0.6765 C   0  0  0  0  0  4           0  0  0
    6.5156   -2.9164    5.8670 C   0  0  0  0  0  4           0  0  0
   -3.8488    5.2081   -0.7254 C   0  0  0  0  0  4           0  0  0
   -4.0760    2.9111    0.0835 C   0  0  0  0  0  4           0  0  0
    6.4284   -1.9919    4.8566 C   0  0  0  0  0  4           0  0  0
    3.3947   -3.2353    1.9626 C   0  0  0  0  0  4           0  0  0
    1.6783   -2.4661    0.4648 C   0  0  0  0  0  4           0  0  0
   -4.8385    4.9592   -1.6797 C   0  0  0  0  0  4           0  0  0
   -5.0676    2.6838   -0.8781 C   0  0  0  0  0  4           0  0  0
    2.3224   -3.5069    1.1188 C   0  0  0  0  0  4           0  0  0
   -5.4441    3.7046   -1.7538 C   0  0  0  0  0  4           0  0  0
   -3.1831    6.5423   -0.6302 C   0  0  2  0  0  4           0  0  0
   -3.6483    1.8441    1.0299 C   0  0  0  0  0  4           0  0  0
    1.4664    0.0000   -0.0000 C   0  0  0  0  0  4           0  0  0
   -2.0719   -0.0181    1.3574 C   0  0  0  0  0  4           0  0  0
   -2.0329    1.1727   -0.7970 C   0  0  0  0  0  4           0  0  0
   -0.5431    0.0000    1.3715 C   0  0  0  0  0  4           0  0  0
   -0.5046    1.1698   -0.7407 C   0  0  0  0  0  4           0  0  0
  1 12  1  0     0  0
  2 26  1  0     0  0
  3 26  1  0     0  0
  4 26  1  0     0  0
  5 27  2  0     0  0
  6  7  1  0     0  0
  6 16  1  0     0  0
  7 13  2  0     0  0
  8 14  1  0     0  0
  8 15  2  0     0  0
  9 13  1  0     0  0
  9 14  1  0     0  0
 10 27  1  0     0  0
 10 29  1  0     0  0
 10 30  1  0     0  0
 11 28  1  0     0  0
 11 31  1  0     0  0
 11 32  1  0     0  0
 12 17  1  0     0  0
 12 18  2  0     0  0
 13 19  1  0     0  0
 14 20  2  0     0  0
 15 21  1  0     0  0
 15 28  1  0     0  0
 16 19  2  0     0  0
 17 22  2  0     0  0
 17 26  1  0     0  0
 18 23  1  0     0  0
 18 27  1  0     0  0
 20 24  1  0     0  0
 21 24  2  0     0  0
 22 25  1  0     0  0
 23 25  2  0     0  0
 29 31  1  0     0  0
 30 32  1  0     0  0
M  END
> <standard_type>
pIC50

> <# Confs.>
25

> <canonical_smiles>
FC1=C(C(N2CCN(CC3=NC(NC4=NNC=C4)=CC=C3)CC2)=O)C=CC=C1C(F)(F)F

> <standard_relation>
=

> <Publication_ID>
nan

> <predicted_activity_value>
6.292429823902063

> <actual_activity_value>
6.275724130399211

> <Compound>
17

> <standard_units>
nM

> hash
1549603100698601883

$$$$
16
XXILIB    08252103493D 0   0.00000     0.00000

 32 35  0     1  0            999 V2000
   -5.6436    1.4257   -0.9157 F   0  0  0  0  0  1           0  0  0
   -7.0336    2.0122   -2.6575 F   0  0  0  0  0  1           0  0  0
   -7.6784    4.0840   -2.6390 F   0  0  0  0  0  1           0  0  0
   -6.1545    3.4344   -4.0474 F   0  0  0  0  0  1           0  0  0
   -4.2101    1.7200    2.1113 O   0  0  0  0  0  2           0  0  0
    4.6334    2.6060   -6.9161 N   0  0  0  0  0  3           0  0  0
    3.8928    1.9395   -6.0173 N   0  0  0  0  0  3           0  0  0
    2.4101    1.2112   -1.9026 N   0  0  0  0  0  3           0  0  0
    3.3115    2.5014   -3.7307 N   0  0  0  0  0  3           0  0  0
   -2.6060    1.0723    0.5476 N   0  0  1  0  0  3           0  0  0
   -0.0000    0.0000    0.0000 N   0  0  1  0  0  3           0  0  0
   -5.0754    2.6414   -0.8615 C   0  0  0  0  0  4           0  0  0
    3.9161    2.7239   -4.9278 C   0  0  0  0  0  4           0  0  0
    3.0262    1.2601   -3.1142 C   0  0  0  0  0  4           0  0  0
    2.1376    0.0000   -1.3531 C   0  0  0  0  0  4           0  0  0
    5.1326    3.7850   -6.4558 C   0  0  0  0  0  4           0  0  0
   -5.5069    3.6164   -1.7706 C   0  0  0  0  0  4           0  0  0
   -4.0760    2.9111    0.0835 C   0  0  0  0  0  4           0  0  0
    4.6870    3.8943   -5.1624 C   0  0  0  0  0  4           0  0  0
    3.3758    0.0908   -3.7926 C   0  0  0  0  0  4           0  0  0
    2.4712   -1.1971   -1.9748 C   0  0  0  0  0  4           0  0  0
   -4.9265    4.8863   -1.7220 C   0  0  0  0  0  4           0  0  0
   -3.5058    4.1891    0.1131 C   0  0  0  0  0  4           0  0  0
    3.0967   -1.1426   -3.2123 C   0  0  0  0  0  4           0  0  0
   -3.9314    5.1694   -0.7861 C   0  0  0  0  0  4           0  0  0
   -6.5773    3.2915   -2.7611 C   0  0  2  0  0  4           0  0  0
   -3.6483    1.8441    1.0299 C   0  0  0  0  0  4           0  0  0
    1.4664    0.0000   -0.0000 C   0  0  0  0  0  4           0  0  0
   -2.0719   -0.0181    1.3574 C   0  0  0  0  0  4           0  0  0
   -2.0329    1.1727   -0.7970 C   0  0  0  0  0  4           0  0  0
   -0.5431    0.0000    1.3715 C   0  0  0  0  0  4           0  0  0
   -0.5046    1.1698   -0.7407 C   0  0  0  0  0  4           0  0  0
  1 12  1  0     0  0
  2 26  1  0     0  0
  3 26  1  0     0  0
  4 26  1  0     0  0
  5 27  2  0     0  0
  6  7  1  0     0  0
  6 16  1  0     0  0
  7 13  2  0     0  0
  8 14  1  0     0  0
  8 15  2  0     0  0
  9 13  1  0     0  0
  9 14  1  0     0  0
 10 27  1  0     0  0
 10 29  1  0     0  0
 10 30  1  0     0  0
 11 28  1  0     0  0
 11 31  1  0     0  0
 11 32  1  0     0  0
 12 17  1  0     0  0
 12 18  2  0     0  0
 13 19  1  0     0  0
 14 20  2  0     0  0
 15 21  1  0     0  0
 15 28  1  0     0  0
 16 19  2  0     0  0
 17 22  2  0     0  0
 17 26  1  0     0  0
 18 23  1  0     0  0
 18 27  1  0     0  0
 20 24  1  0     0  0
 21 24  2  0     0  0
 22 25  1  0     0  0
 23 25  2  0     0  0
 29 31  1  0     0  0
 30 32  1  0     0  0
M  END
> <standard_type>
pIC50

> <# Confs.>
25

> <canonical_smiles>
FC1=C(C(N2CCN(CC3=NC(NC4=NNC=C4)=CC=C3)CC2)=O)C=CC=C1C(F)(F)F

> <standard_relation>
=

> <Publication_ID>
nan

> <predicted_activity_value>
6.292429823902063

> <actual_activity_value>
6.275724130399211

> <Compound>
17

> <standard_units>
nM

> hash
1549603100698601883

$$$$
16
XXILIB    08252103493D 0   0.00000     0.00000

 32 35  0     1  0            999 V2000
   -5.6436    1.4257   -0.9157 F   0  0  0  0  0  1           0  0  0
   -7.0336    2.0122   -2.6575 F   0  0  0  0  0  1           0  0  0
   -7.6784    4.0840   -2.6390 F   0  0  0  0  0  1           0  0  0
   -6.1545    3.4344   -4.0474 F   0  0  0  0  0  1           0  0  0
   -4.2101    1.7200    2.1113 O   0  0  0  0  0  2           0  0  0
    5.0565   -4.5047    5.6100 N   0  0  0  0  0  3           0  0  0
    4.7891   -3.8564    4.4660 N   0  0  0  0  0  3           0  0  0
    2.4101   -1.0421    2.0002 N   0  0  0  0  0  3           0  0  0
    3.3203   -1.9764    4.0295 N   0  0  0  0  0  3           0  0  0
   -2.6060    1.0723    0.5476 N   0  0  1  0  0  3           0  0  0
   -0.0000    0.0000    0.0000 N   0  0  1  0  0  3           0  0  0
   -5.0754    2.6414   -0.8615 C   0  0  0  0  0  4           0  0  0
    3.9075   -2.9093    4.8250 C   0  0  0  0  0  4           0  0  0
    3.0020   -2.0773    2.6543 C   0  0  0  0  0  4           0  0  0
    2.1376   -1.1718    0.6765 C   0  0  0  0  0  4           0  0  0
    4.3880   -4.0183    6.6905 C   0  0  0  0  0  4           0  0  0
   -5.5069    3.6164   -1.7706 C   0  0  0  0  0  4           0  0  0
   -4.0760    2.9111    0.0835 C   0  0  0  0  0  4           0  0  0
    3.6279   -2.9786    6.2164 C   0  0  0  0  0  4           0  0  0
    3.3306   -3.2585    1.9861 C   0  0  0  0  0  4           0  0  0
    2.4307   -2.3262   -0.0392 C   0  0  0  0  0  4           0  0  0
   -4.9265    4.8863   -1.7220 C   0  0  0  0  0  4           0  0  0
   -3.5058    4.1891    0.1131 C   0  0  0  0  0  4           0  0  0
    3.0375   -3.3787    0.6314 C   0  0  0  0  0  4           0  0  0
   -3.9314    5.1694   -0.7861 C   0  0  0  0  0  4           0  0  0
   -6.5773    3.2915   -2.7611 C   0  0  2  0  0  4           0  0  0
   -3.6483    1.8441    1.0299 C   0  0  0  0  0  4           0  0  0
    1.4664    0.0000   -0.0000 C   0  0  0  0  0  4           0  0  0
   -2.0719   -0.0181    1.3574 C   0  0  0  0  0  4           0  0  0
   -2.0329    1.1727   -0.7970 C   0  0  0  0  0  4           0  0  0
   -0.5431    0.0000    1.3715 C   0  0  0  0  0  4           0  0  0
   -0.5046    1.1698   -0.7407 C   0  0  0  0  0  4           0  0  0
  1 12  1  0     0  0
  2 26  1  0     0  0
  3 26  1  0     0  0
  4 26  1  0     0  0
  5 27  2  0     0  0
  6  7  1  0     0  0
  6 16  1  0     0  0
  7 13  2  0     0  0
  8 14  1  0     0  0
  8 15  2  0     0  0
  9 13  1  0     0  0
  9 14  1  0     0  0
 10 27  1  0     0  0
 10 29  1  0     0  0
 10 30  1  0     0  0
 11 28  1  0     0  0
 11 31  1  0     0  0
 11 32  1  0     0  0
 12 17  1  0     0  0
 12 18  2  0     0  0
 13 19  1  0     0  0
 14 20  2  0     0  0
 15 21  1  0     0  0
 15 28  1  0     0  0
 16 19  2  0     0  0
 17 22  2  0     0  0
 17 26  1  0     0  0
 18 23  1  0     0  0
 18 27  1  0     0  0
 20 24  1  0     0  0
 21 24  2  0     0  0
 22 25  1  0     0  0
 23 25  2  0     0  0
 29 31  1  0     0  0
 30 32  1  0     0  0
M  END
> <standard_type>
pIC50

> <# Confs.>
25

> <canonical_smiles>
FC1=C(C(N2CCN(CC3=NC(NC4=NNC=C4)=CC=C3)CC2)=O)C=CC=C1C(F)(F)F

> <standard_relation>
=

> <Publication_ID>
nan

> <predicted_activity_value>
6.292429823902063

> <actual_activity_value>
6.275724130399211

> <Compound>
17

> <standard_units>
nM

> hash
1549603100698601883

$$$$
16
XXILIB    08252103493D 0   0.00000     0.00000

 32 35  0     1  0            999 V2000
   -2.5206    4.4265    1.0560 F   0  0  0  0  0  1           0  0  0
   -2.2375    6.6012    0.3487 F   0  0  0  0  0  1           0  0  0
   -2.5453    6.9059   -1.7776 F   0  0  0  0  0  1           0  0  0
   -4.0646    7.5438   -0.3589 F   0  0  0  0  0  1           0  0  0
   -4.2101    1.7200    2.1113 O   0  0  0  0  0  2           0  0  0
    7.4019    0.8765   -5.1417 N   0  0  0  0  0  3           0  0  0
    6.2465    0.5469   -4.5442 N   0  0  0  0  0  3           0  0  0
    3.1774    0.8564   -1.5220 N   0  0  0  0  0  3           0  0  0
    4.8973    1.7722   -2.9441 N   0  0  0  0  0  3           0  0  0
   -2.6060    1.0723    0.5476 N   0  0  1  0  0  3           0  0  0
   -0.0000    0.0000    0.0000 N   0  0  1  0  0  3           0  0  0
   -3.4757    4.1761    0.1457 C   0  0  0  0  0  4           0  0  0
    5.9694    1.6029   -3.7625 C   0  0  0  0  0  4           0  0  0
    3.8208    0.8815   -2.7200 C   0  0  0  0  0  4           0  0  0
    2.1376    0.0000   -1.3531 C   0  0  0  0  0  4           0  0  0
    7.8821    2.0974   -4.7814 C   0  0  0  0  0  4           0  0  0
   -3.8488    5.2081   -0.7254 C   0  0  0  0  0  4           0  0  0
   -4.0760    2.9111    0.0835 C   0  0  0  0  0  4           0  0  0
    6.9752    2.5995   -3.8820 C   0  0  0  0  0  4           0  0  0
    3.4267    0.0463   -3.7673 C   0  0  0  0  0  4           0  0  0
    1.7070   -0.8624   -2.3539 C   0  0  0  0  0  4           0  0  0
   -4.8385    4.9592   -1.6797 C   0  0  0  0  0  4           0  0  0
   -5.0676    2.6838   -0.8781 C   0  0  0  0  0  4           0  0  0
    2.3643   -0.8313   -3.5757 C   0  0  0  0  0  4           0  0  0
   -5.4441    3.7046   -1.7538 C   0  0  0  0  0  4           0  0  0
   -3.1831    6.5423   -0.6302 C   0  0  2  0  0  4           0  0  0
   -3.6483    1.8441    1.0299 C   0  0  0  0  0  4           0  0  0
    1.4664    0.0000    0.0000 C   0  0  0  0  0  4           0  0  0
   -2.0719   -0.0181    1.3574 C   0  0  0  0  0  4           0  0  0
   -2.0329    1.1727   -0.7970 C   0  0  0  0  0  4           0  0  0
   -0.5431    0.0000    1.3715 C   0  0  0  0  0  4           0  0  0
   -0.5046    1.1698   -0.7407 C   0  0  0  0  0  4           0  0  0
  1 12  1  0     0  0
  2 26  1  0     0  0
  3 26  1  0     0  0
  4 26  1  0     0  0
  5 27  2  0     0  0
  6  7  1  0     0  0
  6 16  1  0     0  0
  7 13  2  0     0  0
  8 14  1  0     0  0
  8 15  2  0     0  0
  9 13  1  0     0  0
  9 14  1  0     0  0
 10 27  1  0     0  0
 10 29  1  0     0  0
 10 30  1  0     0  0
 11 28  1  0     0  0
 11 31  1  0     0  0
 11 32  1  0     0  0
 12 17  1  0     0  0
 12 18  2  0     0  0
 13 19  1  0     0  0
 14 20  2  0     0  0
 15 21  1  0     0  0
 15 28  1  0     0  0
 16 19  2  0     0  0
 17 22  2  0     0  0
 17 26  1  0     0  0
 18 23  1  0     0  0
 18 27  1  0     0  0
 20 24  1  0     0  0
 21 24  2  0     0  0
 22 25  1  0     0  0
 23 25  2  0     0  0
 29 31  1  0     0  0
 30 32  1  0     0  0
M  END
> <standard_type>
pIC50

> <# Confs.>
25

> <canonical_smiles>
FC1=C(C(N2CCN(CC3=NC(NC4=NNC=C4)=CC=C3)CC2)=O)C=CC=C1C(F)(F)F

> <standard_relation>
=

> <Publication_ID>
nan

> <predicted_activity_value>
6.292429823902063

> <actual_activity_value>
6.275724130399211

> <Compound>
17

> <standard_units>
nM

> hash
1549603100698601883

$$$$
16
XXILIB    08252103493D 0   0.00000     0.00000

 32 35  0     1  0            999 V2000
   -5.6436    1.4257   -0.9157 F   0  0  0  0  0  1           0  0  0
   -7.0336    2.0122   -2.6575 F   0  0  0  0  0  1           0  0  0
   -7.6784    4.0840   -2.6390 F   0  0  0  0  0  1           0  0  0
   -6.1545    3.4344   -4.0474 F   0  0  0  0  0  1           0  0  0
   -4.2101    1.7200    2.1113 O   0  0  0  0  0  2           0  0  0
    5.4705   -3.7663    5.6761 N   0  0  0  0  0  3           0  0  0
    4.7092   -3.4644    4.6131 N   0  0  0  0  0  3           0  0  0
    3.1774   -0.8899    1.5027 N   0  0  0  0  0  3           0  0  0
    4.9035   -1.6644    2.9993 N   0  0  0  0  0  3           0  0  0
   -2.6060    1.0723    0.5476 N   0  0  1  0  0  3           0  0  0
   -0.0000    0.0000    0.0000 N   0  0  1  0  0  3           0  0  0
   -5.0754    2.6414   -0.8615 C   0  0  0  0  0  4           0  0  0
    5.2893   -2.3696    4.0956 C   0  0  0  0  0  4           0  0  0
    3.8038   -1.9126    2.1441 C   0  0  0  0  0  4           0  0  0
    2.1376   -1.1718    0.6765 C   0  0  0  0  0  4           0  0  0
    6.5156   -2.9164    5.8670 C   0  0  0  0  0  4           0  0  0
   -5.5069    3.6164   -1.7706 C   0  0  0  0  0  4           0  0  0
   -4.0760    2.9111    0.0835 C   0  0  0  0  0  4           0  0  0
    6.4284   -1.9919    4.8566 C   0  0  0  0  0  4           0  0  0
    3.3947   -3.2353    1.9626 C   0  0  0  0  0  4           0  0  0
    1.6783   -2.4661    0.4648 C   0  0  0  0  0  4           0  0  0
   -4.9265    4.8863   -1.7220 C   0  0  0  0  0  4           0  0  0
   -3.5058    4.1891    0.1131 C   0  0  0  0  0  4           0  0  0
    2.3224   -3.5069    1.1188 C   0  0  0  0  0  4           0  0  0
   -3.9314    5.1694   -0.7861 C   0  0  0  0  0  4           0  0  0
   -6.5773    3.2915   -2.7611 C   0  0  2  0  0  4           0  0  0
   -3.6483    1.8441    1.0299 C   0  0  0  0  0  4           0  0  0
    1.4664    0.0000   -0.0000 C   0  0  0  0  0  4           0  0  0
   -2.0719   -0.0181    1.3574 C   0  0  0  0  0  4           0  0  0
   -2.0329    1.1727   -0.7970 C   0  0  0  0  0  4           0  0  0
   -0.5431    0.0000    1.3715 C   0  0  0  0  0  4           0  0  0
   -0.5046    1.1698   -0.7407 C   0  0  0  0  0  4           0  0  0
  1 12  1  0     0  0
  2 26  1  0     0  0
  3 26  1  0     0  0
  4 26  1  0     0  0
  5 27  2  0     0  0
  6  7  1  0     0  0
  6 16  1  0     0  0
  7 13  2  0     0  0
  8 14  1  0     0  0
  8 15  2  0     0  0
  9 13  1  0     0  0
  9 14  1  0     0  0
 10 27  1  0     0  0
 10 29  1  0     0  0
 10 30  1  0     0  0
 11 28  1  0     0  0
 11 31  1  0     0  0
 11 32  1  0     0  0
 12 17  1  0     0  0
 12 18  2  0     0  0
 13 19  1  0     0  0
 14 20  2  0     0  0
 15 21  1  0     0  0
 15 28  1  0     0  0
 16 19  2  0     0  0
 17 22  2  0     0  0
 17 26  1  0     0  0
 18 23  1  0     0  0
 18 27  1  0     0  0
 20 24  1  0     0  0
 21 24  2  0     0  0
 22 25  1  0     0  0
 23 25  2  0     0  0
 29 31  1  0     0  0
 30 32  1  0     0  0
M  END
> <standard_type>
pIC50

> <# Confs.>
25

> <canonical_smiles>
FC1=C(C(N2CCN(CC3=NC(NC4=NNC=C4)=CC=C3)CC2)=O)C=CC=C1C(F)(F)F

> <standard_relation>
=

> <Publication_ID>
nan

> <predicted_activity_value>
6.292429823902063

> <actual_activity_value>
6.275724130399211

> <Compound>
17

> <standard_units>
nM

> hash
1549603100698601883

$$$$
16
XXILIB    08252103493D 0   0.00000     0.00000

 32 35  0     1  0            999 V2000
   -5.6436    1.4257   -0.9157 F   0  0  0  0  0  1           0  0  0
   -7.0336    2.0122   -2.6575 F   0  0  0  0  0  1           0  0  0
   -7.6784    4.0840   -2.6390 F   0  0  0  0  0  1           0  0  0
   -6.1545    3.4344   -4.0474 F   0  0  0  0  0  1           0  0  0
   -4.2101    1.7200    2.1113 O   0  0  0  0  0  2           0  0  0
    7.4019    0.8765   -5.1417 N   0  0  0  0  0  3           0  0  0
    6.2465    0.5469   -4.5442 N   0  0  0  0  0  3           0  0  0
    3.1774    0.8564   -1.5220 N   0  0  0  0  0  3           0  0  0
    4.8973    1.7722   -2.9441 N   0  0  0  0  0  3           0  0  0
   -2.6060    1.0723    0.5476 N   0  0  1  0  0  3           0  0  0
   -0.0000    0.0000    0.0000 N   0  0  1  0  0  3           0  0  0
   -5.0754    2.6414   -0.8615 C   0  0  0  0  0  4           0  0  0
    5.9694    1.6029   -3.7625 C   0  0  0  0  0  4           0  0  0
    3.8208    0.8815   -2.7200 C   0  0  0  0  0  4           0  0  0
    2.1376    0.0000   -1.3531 C   0  0  0  0  0  4           0  0  0
    7.8821    2.0974   -4.7814 C   0  0  0  0  0  4           0  0  0
   -5.5069    3.6164   -1.7706 C   0  0  0  0  0  4           0  0  0
   -4.0760    2.9111    0.0835 C   0  0  0  0  0  4           0  0  0
    6.9752    2.5995   -3.8820 C   0  0  0  0  0  4           0  0  0
    3.4267    0.0463   -3.7673 C   0  0  0  0  0  4           0  0  0
    1.7070   -0.8624   -2.3539 C   0  0  0  0  0  4           0  0  0
   -4.9265    4.8863   -1.7220 C   0  0  0  0  0  4           0  0  0
   -3.5058    4.1891    0.1131 C   0  0  0  0  0  4           0  0  0
    2.3643   -0.8313   -3.5757 C   0  0  0  0  0  4           0  0  0
   -3.9314    5.1694   -0.7861 C   0  0  0  0  0  4           0  0  0
   -6.5773    3.2915   -2.7611 C   0  0  2  0  0  4           0  0  0
   -3.6483    1.8441    1.0299 C   0  0  0  0  0  4           0  0  0
    1.4664    0.0000    0.0000 C   0  0  0  0  0  4           0  0  0
   -2.0719   -0.0181    1.3574 C   0  0  0  0  0  4           0  0  0
   -2.0329    1.1727   -0.7970 C   0  0  0  0  0  4           0  0  0
   -0.5431    0.0000    1.3715 C   0  0  0  0  0  4           0  0  0
   -0.5046    1.1698   -0.7407 C   0  0  0  0  0  4           0  0  0
  1 12  1  0     0  0
  2 26  1  0     0  0
  3 26  1  0     0  0
  4 26  1  0     0  0
  5 27  2  0     0  0
  6  7  1  0     0  0
  6 16  1  0     0  0
  7 13  2  0     0  0
  8 14  1  0     0  0
  8 15  2  0     0  0
  9 13  1  0     0  0
  9 14  1  0     0  0
 10 27  1  0     0  0
 10 29  1  0     0  0
 10 30  1  0     0  0
 11 28  1  0     0  0
 11 31  1  0     0  0
 11 32  1  0     0  0
 12 17  1  0     0  0
 12 18  2  0     0  0
 13 19  1  0     0  0
 14 20  2  0     0  0
 15 21  1  0     0  0
 15 28  1  0     0  0
 16 19  2  0     0  0
 17 22  2  0     0  0
 17 26  1  0     0  0
 18 23  1  0     0  0
 18 27  1  0     0  0
 20 24  1  0     0  0
 21 24  2  0     0  0
 22 25  1  0     0  0
 23 25  2  0     0  0
 29 31  1  0     0  0
 30 32  1  0     0  0
M  END
> <standard_type>
pIC50

> <# Confs.>
25

> <canonical_smiles>
FC1=C(C(N2CCN(CC3=NC(NC4=NNC=C4)=CC=C3)CC2)=O)C=CC=C1C(F)(F)F

> <standard_relation>
=

> <Publication_ID>
nan

> <predicted_activity_value>
6.292429823902063

> <actual_activity_value>
6.275724130399211

> <Compound>
17

> <standard_units>
nM

> hash
1549603100698601883

$$$$
16
XXILIB    08252103493D 0   0.00000     0.00000

 32 35  0     1  0            999 V2000
   -5.6436    1.4257   -0.9157 F   0  0  0  0  0  1           0  0  0
   -7.0336    2.0122   -2.6575 F   0  0  0  0  0  1           0  0  0
   -7.6784    4.0840   -2.6390 F   0  0  0  0  0  1           0  0  0
   -6.1545    3.4344   -4.0474 F   0  0  0  0  0  1           0  0  0
   -4.2101    1.7200    2.1113 O   0  0  0  0  0  2           0  0  0
    3.3196    7.5886    1.1896 N   0  0  0  0  0  3           0  0  0
    3.1323    6.2666    1.3239 N   0  0  0  0  0  3           0  0  0
    2.4101    2.2533   -0.0976 N   0  0  0  0  0  3           0  0  0
    3.3203    4.4779   -0.3031 N   0  0  0  0  0  3           0  0  0
   -2.6060    1.0723    0.5476 N   0  0  1  0  0  3           0  0  0
   -0.0000    0.0000    0.0000 N   0  0  1  0  0  3           0  0  0
   -5.0754    2.6414   -0.8615 C   0  0  0  0  0  4           0  0  0
    3.3725    5.7759    0.0973 C   0  0  0  0  0  4           0  0  0
    3.0020    3.3373    0.4718 C   0  0  0  0  0  4           0  0  0
    2.1376    1.1718    0.6765 C   0  0  0  0  0  4           0  0  0
    3.6704    7.9724   -0.0676 C   0  0  0  0  0  4           0  0  0
   -5.5069    3.6164   -1.7706 C   0  0  0  0  0  4           0  0  0
   -4.0760    2.9111    0.0835 C   0  0  0  0  0  4           0  0  0
    3.7129    6.8173   -0.8075 C   0  0  0  0  0  4           0  0  0
    3.3306    3.3493    1.8289 C   0  0  0  0  0  4           0  0  0
    2.4307    1.1291    2.0341 C   0  0  0  0  0  4           0  0  0
   -4.9265    4.8863   -1.7220 C   0  0  0  0  0  4           0  0  0
   -3.5058    4.1891    0.1131 C   0  0  0  0  0  4           0  0  0
    3.0375    2.2361    2.6104 C   0  0  0  0  0  4           0  0  0
   -3.9314    5.1694   -0.7861 C   0  0  0  0  0  4           0  0  0
   -6.5773    3.2915   -2.7611 C   0  0  2  0  0  4           0  0  0
   -3.6483    1.8441    1.0299 C   0  0  0  0  0  4           0  0  0
    1.4664   -0.0000   -0.0000 C   0  0  0  0  0  4           0  0  0
   -2.0719   -0.0181    1.3574 C   0  0  0  0  0  4           0  0  0
   -2.0329    1.1727   -0.7970 C   0  0  0  0  0  4           0  0  0
   -0.5431    0.0000    1.3715 C   0  0  0  0  0  4           0  0  0
   -0.5046    1.1698   -0.7407 C   0  0  0  0  0  4           0  0  0
  1 12  1  0     0  0
  2 26  1  0     0  0
  3 26  1  0     0  0
  4 26  1  0     0  0
  5 27  2  0     0  0
  6  7  1  0     0  0
  6 16  1  0     0  0
  7 13  2  0     0  0
  8 14  1  0     0  0
  8 15  2  0     0  0
  9 13  1  0     0  0
  9 14  1  0     0  0
 10 27  1  0     0  0
 10 29  1  0     0  0
 10 30  1  0     0  0
 11 28  1  0     0  0
 11 31  1  0     0  0
 11 32  1  0     0  0
 12 17  1  0     0  0
 12 18  2  0     0  0
 13 19  1  0     0  0
 14 20  2  0     0  0
 15 21  1  0     0  0
 15 28  1  0     0  0
 16 19  2  0     0  0
 17 22  2  0     0  0
 17 26  1  0     0  0
 18 23  1  0     0  0
 18 27  1  0     0  0
 20 24  1  0     0  0
 21 24  2  0     0  0
 22 25  1  0     0  0
 23 25  2  0     0  0
 29 31  1  0     0  0
 30 32  1  0     0  0
M  END
> <standard_type>
pIC50

> <# Confs.>
25

> <canonical_smiles>
FC1=C(C(N2CCN(CC3=NC(NC4=NNC=C4)=CC=C3)CC2)=O)C=CC=C1C(F)(F)F

> <standard_relation>
=

> <Publication_ID>
nan

> <predicted_activity_value>
6.292429823902063

> <actual_activity_value>
6.275724130399211

> <Compound>
17

> <standard_units>
nM

> hash
1549603100698601883

$$$$
16
XXILIB    08252103493D 0   0.00000     0.00000

 32 35  0     1  0            999 V2000
   -2.5206    4.4265    1.0560 F   0  0  0  0  0  1           0  0  0
   -2.2375    6.6012    0.3487 F   0  0  0  0  0  1           0  0  0
   -2.5453    6.9059   -1.7776 F   0  0  0  0  0  1           0  0  0
   -4.0646    7.5438   -0.3589 F   0  0  0  0  0  1           0  0  0
   -4.2101    1.7200    2.1113 O   0  0  0  0  0  2           0  0  0
    5.0565    7.1107    1.0962 N   0  0  0  0  0  3           0  0  0
    4.7891    5.7958    1.1067 N   0  0  0  0  0  3           0  0  0
    2.4101    2.2533   -0.0976 N   0  0  0  0  0  3           0  0  0
    3.3203    4.4779   -0.3031 N   0  0  0  0  0  3           0  0  0
   -2.6060    1.0723    0.5476 N   0  0  1  0  0  3           0  0  0
   -0.0000    0.0000    0.0000 N   0  0  1  0  0  3           0  0  0
   -3.4757    4.1761    0.1457 C   0  0  0  0  0  4           0  0  0
    3.9075    5.6332    0.1071 C   0  0  0  0  0  4           0  0  0
    3.0020    3.3373    0.4718 C   0  0  0  0  0  4           0  0  0
    2.1376    1.1718    0.6765 C   0  0  0  0  0  4           0  0  0
    4.3880    7.8033    0.1347 C   0  0  0  0  0  4           0  0  0
   -3.8488    5.2081   -0.7254 C   0  0  0  0  0  4           0  0  0
   -4.0760    2.9111    0.0835 C   0  0  0  0  0  4           0  0  0
    3.6279    6.8729   -0.5286 C   0  0  0  0  0  4           0  0  0
    3.3306    3.3493    1.8289 C   0  0  0  0  0  4           0  0  0
    2.4307    1.1291    2.0341 C   0  0  0  0  0  4           0  0  0
   -4.8385    4.9592   -1.6797 C   0  0  0  0  0  4           0  0  0
   -5.0676    2.6838   -0.8781 C   0  0  0  0  0  4           0  0  0
    3.0375    2.2361    2.6104 C   0  0  0  0  0  4           0  0  0
   -5.4441    3.7046   -1.7538 C   0  0  0  0  0  4           0  0  0
   -3.1831    6.5423   -0.6302 C   0  0  2  0  0  4           0  0  0
   -3.6483    1.8441    1.0299 C   0  0  0  0  0  4           0  0  0
    1.4664   -0.0000   -0.0000 C   0  0  0  0  0  4           0  0  0
   -2.0719   -0.0181    1.3574 C   0  0  0  0  0  4           0  0  0
   -2.0329    1.1727   -0.7970 C   0  0  0  0  0  4           0  0  0
   -0.5431    0.0000    1.3715 C   0  0  0  0  0  4           0  0  0
   -0.5046    1.1698   -0.7407 C   0  0  0  0  0  4           0  0  0
  1 12  1  0     0  0
  2 26  1  0     0  0
  3 26  1  0     0  0
  4 26  1  0     0  0
  5 27  2  0     0  0
  6  7  1  0     0  0
  6 16  1  0     0  0
  7 13  2  0     0  0
  8 14  1  0     0  0
  8 15  2  0     0  0
  9 13  1  0     0  0
  9 14  1  0     0  0
 10 27  1  0     0  0
 10 29  1  0     0  0
 10 30  1  0     0  0
 11 28  1  0     0  0
 11 31  1  0     0  0
 11 32  1  0     0  0
 12 17  1  0     0  0
 12 18  2  0     0  0
 13 19  1  0     0  0
 14 20  2  0     0  0
 15 21  1  0     0  0
 15 28  1  0     0  0
 16 19  2  0     0  0
 17 22  2  0     0  0
 17 26  1  0     0  0
 18 23  1  0     0  0
 18 27  1  0     0  0
 20 24  1  0     0  0
 21 24  2  0     0  0
 22 25  1  0     0  0
 23 25  2  0     0  0
 29 31  1  0     0  0
 30 32  1  0     0  0
M  END
> <standard_type>
pIC50

> <# Confs.>
25

> <canonical_smiles>
FC1=C(C(N2CCN(CC3=NC(NC4=NNC=C4)=CC=C3)CC2)=O)C=CC=C1C(F)(F)F

> <standard_relation>
=

> <Publication_ID>
nan

> <predicted_activity_value>
6.292429823902063

> <actual_activity_value>
6.275724130399211

> <Compound>
17

> <standard_units>
nM

> hash
1549603100698601883

$$$$
16
XXILIB    08252103493D 0   0.00000     0.00000

 32 35  0     1  0            999 V2000
   -4.0327    4.6075    0.6331 F   0  0  0  0  0  1           0  0  0
   -4.8934    6.4812   -0.3955 F   0  0  0  0  0  1           0  0  0
   -5.2229    6.2679   -2.5296 F   0  0  0  0  0  1           0  0  0
   -6.9116    6.2191   -1.1607 F   0  0  0  0  0  1           0  0  0
   -3.8854    2.1006    2.2039 O   0  0  0  0  0  2           0  0  0
    4.6334    2.6060   -6.9161 N   0  0  0  0  0  3           0  0  0
    3.8928    1.9395   -6.0173 N   0  0  0  0  0  3           0  0  0
    2.4101    1.2112   -1.9026 N   0  0  0  0  0  3           0  0  0
    3.3115    2.5014   -3.7307 N   0  0  0  0  0  3           0  0  0
   -2.6060    1.0723    0.5476 N   0  0  1  0  0  3           0  0  0
   -0.0000    0.0000    0.0000 N   0  0  1  0  0  3           0  0  0
   -4.6775    3.7668   -0.1922 C   0  0  0  0  0  4           0  0  0
    3.9161    2.7239   -4.9278 C   0  0  0  0  0  4           0  0  0
    3.0262    1.2601   -3.1142 C   0  0  0  0  0  4           0  0  0
    2.1376    0.0000   -1.3531 C   0  0  0  0  0  4           0  0  0
    5.1326    3.7850   -6.4558 C   0  0  0  0  0  4           0  0  0
   -5.4955    4.3138   -1.1896 C   0  0  0  0  0  4           0  0  0
   -4.5279    2.3811   -0.0449 C   0  0  0  0  0  4           0  0  0
    4.6870    3.8943   -5.1624 C   0  0  0  0  0  4           0  0  0
    3.3758    0.0908   -3.7926 C   0  0  0  0  0  4           0  0  0
    2.4712   -1.1971   -1.9748 C   0  0  0  0  0  4           0  0  0
   -6.1686    3.4501   -2.0573 C   0  0  0  0  0  4           0  0  0
   -5.2135    1.5335   -0.9229 C   0  0  0  0  0  4           0  0  0
    3.0967   -1.1426   -3.2123 C   0  0  0  0  0  4           0  0  0
   -6.0285    2.0685   -1.9230 C   0  0  0  0  0  4           0  0  0
   -5.6268    5.7967   -1.3171 C   0  0  2  0  0  4           0  0  0
   -3.6483    1.8441    1.0299 C   0  0  0  0  0  4           0  0  0
    1.4664    0.0000   -0.0000 C   0  0  0  0  0  4           0  0  0
   -2.0719   -0.0181    1.3574 C   0  0  0  0  0  4           0  0  0
   -2.0329    1.1727   -0.7970 C   0  0  0  0  0  4           0  0  0
   -0.5431    0.0000    1.3715 C   0  0  0  0  0  4           0  0  0
   -0.5046    1.1698   -0.7407 C   0  0  0  0  0  4           0  0  0
  1 12  1  0     0  0
  2 26  1  0     0  0
  3 26  1  0     0  0
  4 26  1  0     0  0
  5 27  2  0     0  0
  6  7  1  0     0  0
  6 16  1  0     0  0
  7 13  2  0     0  0
  8 14  1  0     0  0
  8 15  2  0     0  0
  9 13  1  0     0  0
  9 14  1  0     0  0
 10 27  1  0     0  0
 10 29  1  0     0  0
 10 30  1  0     0  0
 11 28  1  0     0  0
 11 31  1  0     0  0
 11 32  1  0     0  0
 12 17  1  0     0  0
 12 18  2  0     0  0
 13 19  1  0     0  0
 14 20  2  0     0  0
 15 21  1  0     0  0
 15 28  1  0     0  0
 16 19  2  0     0  0
 17 22  2  0     0  0
 17 26  1  0     0  0
 18 23  1  0     0  0
 18 27  1  0     0  0
 20 24  1  0     0  0
 21 24  2  0     0  0
 22 25  1  0     0  0
 23 25  2  0     0  0
 29 31  1  0     0  0
 30 32  1  0     0  0
M  END
> <standard_type>
pIC50

> <# Confs.>
25

> <canonical_smiles>
FC1=C(C(N2CCN(CC3=NC(NC4=NNC=C4)=CC=C3)CC2)=O)C=CC=C1C(F)(F)F

> <standard_relation>
=

> <Publication_ID>
nan

> <predicted_activity_value>
6.292429823902063

> <actual_activity_value>
6.275724130399211

> <Compound>
17

> <standard_units>
nM

> hash
1549603100698601883

$$$$
16
XXILIB    08252103493D 0   0.00000     0.00000

 32 35  0     1  0            999 V2000
   -0.3483    5.7667    1.4211 F   0  0  0  0  0  1           0  0  0
    0.0461    7.8209    0.4543 F   0  0  0  0  0  1           0  0  0
   -0.6537    8.0046   -1.5914 F   0  0  0  0  0  1           0  0  0
   -1.7586    8.9541    0.0228 F   0  0  0  0  0  1           0  0  0
   -2.1015    3.4107    3.0548 O   0  0  0  0  0  2           0  0  0
    4.6334    2.6060   -6.9161 N   0  0  0  0  0  3           0  0  0
    3.8928    1.9395   -6.0173 N   0  0  0  0  0  3           0  0  0
    2.4101    1.2112   -1.9026 N   0  0  0  0  0  3           0  0  0
    3.3115    2.5014   -3.7307 N   0  0  0  0  0  3           0  0  0
   -0.9454    2.4289    1.2837 N   0  0  1  0  0  3           0  0  0
   -0.0000    0.0000    0.0000 N   0  0  1  0  0  3           0  0  0
   -1.4938    5.5847    0.7440 C   0  0  0  0  0  4           0  0  0
    3.9161    2.7239   -4.9278 C   0  0  0  0  0  4           0  0  0
    3.0262    1.2601   -3.1142 C   0  0  0  0  0  4           0  0  0
    2.1376    0.0000   -1.3531 C   0  0  0  0  0  4           0  0  0
    5.1326    3.7850   -6.4558 C   0  0  0  0  0  4           0  0  0
   -1.9096    6.5903   -0.1386 C   0  0  0  0  0  4           0  0  0
   -2.2439    4.4152    0.9289 C   0  0  0  0  0  4           0  0  0
    4.6870    3.8943   -5.1624 C   0  0  0  0  0  4           0  0  0
    3.3758    0.0908   -3.7926 C   0  0  0  0  0  4           0  0  0
    2.4712   -1.1971   -1.9748 C   0  0  0  0  0  4           0  0  0
   -3.0975    6.4113   -0.8520 C   0  0  0  0  0  4           0  0  0
   -3.4324    4.2573    0.2065 C   0  0  0  0  0  4           0  0  0
    3.0967   -1.1426   -3.2123 C   0  0  0  0  0  4           0  0  0
   -3.8539    5.2519   -0.6787 C   0  0  0  0  0  4           0  0  0
   -1.0808    7.8214   -0.3111 C   0  0  2  0  0  4           0  0  0
   -1.7638    3.3732    1.8779 C   0  0  0  0  0  4           0  0  0
    1.4664    0.0000   -0.0000 C   0  0  0  0  0  4           0  0  0
   -0.3954    1.3397    2.0870 C   0  0  0  0  0  4           0  0  0
   -0.4695    2.4785   -0.1029 C   0  0  0  0  0  4           0  0  0
   -0.5476    0.0000    1.3667 C   0  0  0  0  0  4           0  0  0
   -0.5864    1.1072   -0.7764 C   0  0  0  0  0  4           0  0  0
  1 12  1  0     0  0
  2 26  1  0     0  0
  3 26  1  0     0  0
  4 26  1  0     0  0
  5 27  2  0     0  0
  6  7  1  0     0  0
  6 16  1  0     0  0
  7 13  2  0     0  0
  8 14  1  0     0  0
  8 15  2  0     0  0
  9 13  1  0     0  0
  9 14  1  0     0  0
 10 27  1  0     0  0
 10 29  1  0     0  0
 10 30  1  0     0  0
 11 28  1  0     0  0
 11 31  1  0     0  0
 11 32  1  0     0  0
 12 17  1  0     0  0
 12 18  2  0     0  0
 13 19  1  0     0  0
 14 20  2  0     0  0
 15 21  1  0     0  0
 15 28  1  0     0  0
 16 19  2  0     0  0
 17 22  2  0     0  0
 17 26  1  0     0  0
 18 23  1  0     0  0
 18 27  1  0     0  0
 20 24  1  0     0  0
 21 24  2  0     0  0
 22 25  1  0     0  0
 23 25  2  0     0  0
 29 31  1  0     0  0
 30 32  1  0     0  0
M  END
> <standard_type>
pIC50

> <# Confs.>
25

> <canonical_smiles>
FC1=C(C(N2CCN(CC3=NC(NC4=NNC=C4)=CC=C3)CC2)=O)C=CC=C1C(F)(F)F

> <standard_relation>
=

> <Publication_ID>
nan

> <predicted_activity_value>
6.292429823902063

> <actual_activity_value>
6.275724130399211

> <Compound>
17

> <standard_units>
nM

> hash
1549603100698601883

$$$$
16
XXILIB    08252103493D 0   0.00000     0.00000

 32 35  0     1  0            999 V2000
   -4.0327    4.6075    0.6331 F   0  0  0  0  0  1           0  0  0
   -4.8934    6.4812   -0.3955 F   0  0  0  0  0  1           0  0  0
   -5.2229    6.2679   -2.5296 F   0  0  0  0  0  1           0  0  0
   -6.9116    6.2191   -1.1607 F   0  0  0  0  0  1           0  0  0
   -3.8854    2.1006    2.2039 O   0  0  0  0  0  2           0  0  0
    5.0565   -4.5047    5.6100 N   0  0  0  0  0  3           0  0  0
    4.7891   -3.8564    4.4660 N   0  0  0  0  0  3           0  0  0
    2.4101   -1.0421    2.0002 N   0  0  0  0  0  3           0  0  0
    3.3203   -1.9764    4.0295 N   0  0  0  0  0  3           0  0  0
   -2.6060    1.0723    0.5476 N   0  0  1  0  0  3           0  0  0
   -0.0000    0.0000    0.0000 N   0  0  1  0  0  3           0  0  0
   -4.6775    3.7668   -0.1922 C   0  0  0  0  0  4           0  0  0
    3.9075   -2.9093    4.8250 C   0  0  0  0  0  4           0  0  0
    3.0020   -2.0773    2.6543 C   0  0  0  0  0  4           0  0  0
    2.1376   -1.1718    0.6765 C   0  0  0  0  0  4           0  0  0
    4.3880   -4.0183    6.6905 C   0  0  0  0  0  4           0  0  0
   -5.4955    4.3138   -1.1896 C   0  0  0  0  0  4           0  0  0
   -4.5279    2.3811   -0.0449 C   0  0  0  0  0  4           0  0  0
    3.6279   -2.9786    6.2164 C   0  0  0  0  0  4           0  0  0
    3.3306   -3.2585    1.9861 C   0  0  0  0  0  4           0  0  0
    2.4307   -2.3262   -0.0392 C   0  0  0  0  0  4           0  0  0
   -6.1686    3.4501   -2.0573 C   0  0  0  0  0  4           0  0  0
   -5.2135    1.5335   -0.9229 C   0  0  0  0  0  4           0  0  0
    3.0375   -3.3787    0.6314 C   0  0  0  0  0  4           0  0  0
   -6.0285    2.0685   -1.9230 C   0  0  0  0  0  4           0  0  0
   -5.6268    5.7967   -1.3171 C   0  0  2  0  0  4           0  0  0
   -3.6483    1.8441    1.0299 C   0  0  0  0  0  4           0  0  0
    1.4664    0.0000   -0.0000 C   0  0  0  0  0  4           0  0  0
   -2.0719   -0.0181    1.3574 C   0  0  0  0  0  4           0  0  0
   -2.0329    1.1727   -0.7970 C   0  0  0  0  0  4           0  0  0
   -0.5431    0.0000    1.3715 C   0  0  0  0  0  4           0  0  0
   -0.5046    1.1698   -0.7407 C   0  0  0  0  0  4           0  0  0
  1 12  1  0     0  0
  2 26  1  0     0  0
  3 26  1  0     0  0
  4 26  1  0     0  0
  5 27  2  0     0  0
  6  7  1  0     0  0
  6 16  1  0     0  0
  7 13  2  0     0  0
  8 14  1  0     0  0
  8 15  2  0     0  0
  9 13  1  0     0  0
  9 14  1  0     0  0
 10 27  1  0     0  0
 10 29  1  0     0  0
 10 30  1  0     0  0
 11 28  1  0     0  0
 11 31  1  0     0  0
 11 32  1  0     0  0
 12 17  1  0     0  0
 12 18  2  0     0  0
 13 19  1  0     0  0
 14 20  2  0     0  0
 15 21  1  0     0  0
 15 28  1  0     0  0
 16 19  2  0     0  0
 17 22  2  0     0  0
 17 26  1  0     0  0
 18 23  1  0     0  0
 18 27  1  0     0  0
 20 24  1  0     0  0
 21 24  2  0     0  0
 22 25  1  0     0  0
 23 25  2  0     0  0
 29 31  1  0     0  0
 30 32  1  0     0  0
M  END
> <standard_type>
pIC50

> <# Confs.>
25

> <canonical_smiles>
FC1=C(C(N2CCN(CC3=NC(NC4=NNC=C4)=CC=C3)CC2)=O)C=CC=C1C(F)(F)F

> <standard_relation>
=

> <Publication_ID>
nan

> <predicted_activity_value>
6.292429823902063

> <actual_activity_value>
6.275724130399211

> <Compound>
17

> <standard_units>
nM

> hash
1549603100698601883

$$$$
16
XXILIB    08252103493D 0   0.00000     0.00000

 32 35  0     1  0            999 V2000
   -0.0179   -5.7237    1.3739 F   0  0  0  0  0  1           0  0  0
    0.5417   -7.7356    0.3998 F   0  0  0  0  0  1           0  0  0
   -1.1471   -9.0235   -0.0450 F   0  0  0  0  0  1           0  0  0
   -0.1515   -7.9464   -1.6502 F   0  0  0  0  0  1           0  0  0
   -1.9636   -3.5472    3.0415 O   0  0  0  0  0  2           0  0  0
    3.3196   -2.7641   -7.1667 N   0  0  0  0  0  3           0  0  0
    3.1323   -1.9868   -6.0890 N   0  0  0  0  0  3           0  0  0
    2.4101   -1.2112   -1.9026 N   0  0  0  0  0  3           0  0  0
    3.3203   -2.5014   -3.7264 N   0  0  0  0  0  3           0  0  0
   -0.9074   -2.4539    1.2732 N   0  0  1  0  0  3           0  0  0
    0.0000   -0.0000    0.0000 N   0  0  1  0  0  3           0  0  0
   -1.1814   -5.6400    0.7084 C   0  0  0  0  0  4           0  0  0
    3.3725   -2.8037   -5.0507 C   0  0  0  0  0  4           0  0  0
    3.0020   -1.2601   -3.1261 C   0  0  0  0  0  4           0  0  0
    2.1376    0.0000   -1.3531 C   0  0  0  0  0  4           0  0  0
    3.6704   -4.0448   -6.8705 C   0  0  0  0  0  4           0  0  0
   -1.5121   -6.6705   -0.1815 C   0  0  0  0  0  4           0  0  0
   -2.0303   -4.5427    0.9077 C   0  0  0  0  0  4           0  0  0
    3.7129   -4.1080   -5.5003 C   0  0  0  0  0  4           0  0  0
    3.3306   -0.0908   -3.8150 C   0  0  0  0  0  4           0  0  0
    2.4307    1.1971   -1.9949 C   0  0  0  0  0  4           0  0  0
   -2.7216   -6.5973   -0.8771 C   0  0  0  0  0  4           0  0  0
   -3.2359   -4.4876    0.1986 C   0  0  0  0  0  4           0  0  0
    3.0375    1.1426   -3.2417 C   0  0  0  0  0  4           0  0  0
   -3.5769   -5.5114   -0.6880 C   0  0  0  0  0  4           0  0  0
   -0.5824   -7.8257   -0.3643 C   0  0  2  0  0  4           0  0  0
   -1.6378   -3.4703    1.8632 C   0  0  0  0  0  4           0  0  0
    1.4664   -0.0000    0.0000 C   0  0  0  0  0  4           0  0  0
   -0.4507   -1.3309    2.0892 C   0  0  0  0  0  4           0  0  0
   -0.3928   -2.4834   -0.1005 C   0  0  0  0  0  4           0  0  0
   -0.5918    0.0000    1.3486 C   0  0  0  0  0  4           0  0  0
   -0.5470   -1.1215   -0.7806 C   0  0  0  0  0  4           0  0  0
  1 12  1  0     0  0
  2 26  1  0     0  0
  3 26  1  0     0  0
  4 26  1  0     0  0
  5 27  2  0     0  0
  6  7  1  0     0  0
  6 16  1  0     0  0
  7 13  2  0     0  0
  8 14  1  0     0  0
  8 15  2  0     0  0
  9 13  1  0     0  0
  9 14  1  0     0  0
 10 27  1  0     0  0
 10 29  1  0     0  0
 10 30  1  0     0  0
 11 28  1  0     0  0
 11 31  1  0     0  0
 11 32  1  0     0  0
 12 17  1  0     0  0
 12 18  2  0     0  0
 13 19  1  0     0  0
 14 20  2  0     0  0
 15 21  1  0     0  0
 15 28  1  0     0  0
 16 19  2  0     0  0
 17 22  2  0     0  0
 17 26  1  0     0  0
 18 23  1  0     0  0
 18 27  1  0     0  0
 20 24  1  0     0  0
 21 24  2  0     0  0
 22 25  1  0     0  0
 23 25  2  0     0  0
 29 31  1  0     0  0
 30 32  1  0     0  0
M  END
> <standard_type>
pIC50

> <# Confs.>
25

> <canonical_smiles>
FC1=C(C(N2CCN(CC3=NC(NC4=NNC=C4)=CC=C3)CC2)=O)C=CC=C1C(F)(F)F

> <standard_relation>
=

> <Publication_ID>
nan

> <predicted_activity_value>
6.292429823902063

> <actual_activity_value>
6.275724130399211

> <Compound>
17

> <standard_units>
nM

> hash
1549603100698601883

$$$$
16
XXILIB    08252103493D 0   0.00000     0.00000

 32 35  0     1  0            999 V2000
   -4.0327    4.6075    0.6331 F   0  0  0  0  0  1           0  0  0
   -4.8934    6.4812   -0.3955 F   0  0  0  0  0  1           0  0  0
   -5.2229    6.2679   -2.5296 F   0  0  0  0  0  1           0  0  0
   -6.9116    6.2191   -1.1607 F   0  0  0  0  0  1           0  0  0
   -3.8854    2.1006    2.2039 O   0  0  0  0  0  2           0  0  0
    5.4705   -3.7663    5.6761 N   0  0  0  0  0  3           0  0  0
    4.7092   -3.4644    4.6131 N   0  0  0  0  0  3           0  0  0
    3.1774   -0.8899    1.5027 N   0  0  0  0  0  3           0  0  0
    4.9035   -1.6644    2.9993 N   0  0  0  0  0  3           0  0  0
   -2.6060    1.0723    0.5476 N   0  0  1  0  0  3           0  0  0
   -0.0000    0.0000    0.0000 N   0  0  1  0  0  3           0  0  0
   -4.6775    3.7668   -0.1922 C   0  0  0  0  0  4           0  0  0
    5.2893   -2.3696    4.0956 C   0  0  0  0  0  4           0  0  0
    3.8038   -1.9126    2.1441 C   0  0  0  0  0  4           0  0  0
    2.1376   -1.1718    0.6765 C   0  0  0  0  0  4           0  0  0
    6.5156   -2.9164    5.8670 C   0  0  0  0  0  4           0  0  0
   -5.4955    4.3138   -1.1896 C   0  0  0  0  0  4           0  0  0
   -4.5279    2.3811   -0.0449 C   0  0  0  0  0  4           0  0  0
    6.4284   -1.9919    4.8566 C   0  0  0  0  0  4           0  0  0
    3.3947   -3.2353    1.9626 C   0  0  0  0  0  4           0  0  0
    1.6783   -2.4661    0.4648 C   0  0  0  0  0  4           0  0  0
   -6.1686    3.4501   -2.0573 C   0  0  0  0  0  4           0  0  0
   -5.2135    1.5335   -0.9229 C   0  0  0  0  0  4           0  0  0
    2.3224   -3.5069    1.1188 C   0  0  0  0  0  4           0  0  0
   -6.0285    2.0685   -1.9230 C   0  0  0  0  0  4           0  0  0
   -5.6268    5.7967   -1.3171 C   0  0  2  0  0  4           0  0  0
   -3.6483    1.8441    1.0299 C   0  0  0  0  0  4           0  0  0
    1.4664    0.0000   -0.0000 C   0  0  0  0  0  4           0  0  0
   -2.0719   -0.0181    1.3574 C   0  0  0  0  0  4           0  0  0
   -2.0329    1.1727   -0.7970 C   0  0  0  0  0  4           0  0  0
   -0.5431    0.0000    1.3715 C   0  0  0  0  0  4           0  0  0
   -0.5046    1.1698   -0.7407 C   0  0  0  0  0  4           0  0  0
  1 12  1  0     0  0
  2 26  1  0     0  0
  3 26  1  0     0  0
  4 26  1  0     0  0
  5 27  2  0     0  0
  6  7  1  0     0  0
  6 16  1  0     0  0
  7 13  2  0     0  0
  8 14  1  0     0  0
  8 15  2  0     0  0
  9 13  1  0     0  0
  9 14  1  0     0  0
 10 27  1  0     0  0
 10 29  1  0     0  0
 10 30  1  0     0  0
 11 28  1  0     0  0
 11 31  1  0     0  0
 11 32  1  0     0  0
 12 17  1  0     0  0
 12 18  2  0     0  0
 13 19  1  0     0  0
 14 20  2  0     0  0
 15 21  1  0     0  0
 15 28  1  0     0  0
 16 19  2  0     0  0
 17 22  2  0     0  0
 17 26  1  0     0  0
 18 23  1  0     0  0
 18 27  1  0     0  0
 20 24  1  0     0  0
 21 24  2  0     0  0
 22 25  1  0     0  0
 23 25  2  0     0  0
 29 31  1  0     0  0
 30 32  1  0     0  0
M  END
> <standard_type>
pIC50

> <# Confs.>
25

> <canonical_smiles>
FC1=C(C(N2CCN(CC3=NC(NC4=NNC=C4)=CC=C3)CC2)=O)C=CC=C1C(F)(F)F

> <standard_relation>
=

> <Publication_ID>
nan

> <predicted_activity_value>
6.292429823902063

> <actual_activity_value>
6.275724130399211

> <Compound>
17

> <standard_units>
nM

> hash
1549603100698601883

$$$$
16
XXILIB    08252103493D 0   0.00000     0.00000

 32 35  0     1  0            999 V2000
   -4.1529    3.0931    0.4101 F   0  0  0  0  0  1           0  0  0
   -5.7898    3.7357   -1.0791 F   0  0  0  0  0  1           0  0  0
   -6.1593    5.8728   -1.1470 F   0  0  0  0  0  1           0  0  0
   -5.0492    4.9120   -2.7510 F   0  0  0  0  0  1           0  0  0
   -2.1015    3.4107    3.0548 O   0  0  0  0  0  2           0  0  0
    4.6334    2.6060   -6.9161 N   0  0  0  0  0  3           0  0  0
    3.8928    1.9395   -6.0173 N   0  0  0  0  0  3           0  0  0
    2.4101    1.2112   -1.9026 N   0  0  0  0  0  3           0  0  0
    3.3115    2.5014   -3.7307 N   0  0  0  0  0  3           0  0  0
   -0.9454    2.4289    1.2837 N   0  0  1  0  0  3           0  0  0
   -0.0000    0.0000    0.0000 N   0  0  1  0  0  3           0  0  0
   -3.4417    4.2178    0.2286 C   0  0  0  0  0  4           0  0  0
    3.9161    2.7239   -4.9278 C   0  0  0  0  0  4           0  0  0
    3.0262    1.2601   -3.1142 C   0  0  0  0  0  4           0  0  0
    2.1376    0.0000   -1.3531 C   0  0  0  0  0  4           0  0  0
    5.1326    3.7850   -6.4558 C   0  0  0  0  0  4           0  0  0
   -3.9290    5.1724   -0.6739 C   0  0  0  0  0  4           0  0  0
   -2.2439    4.4152    0.9289 C   0  0  0  0  0  4           0  0  0
    4.6870    3.8943   -5.1624 C   0  0  0  0  0  4           0  0  0
    3.3758    0.0908   -3.7926 C   0  0  0  0  0  4           0  0  0
    2.4712   -1.1971   -1.9748 C   0  0  0  0  0  4           0  0  0
   -3.2006    6.3486   -0.8687 C   0  0  0  0  0  4           0  0  0
   -1.5281    5.5993    0.7168 C   0  0  0  0  0  4           0  0  0
    3.0967   -1.1426   -3.2123 C   0  0  0  0  0  4           0  0  0
   -2.0070    6.5591   -0.1778 C   0  0  0  0  0  4           0  0  0
   -5.2120    4.9271   -1.3993 C   0  0  2  0  0  4           0  0  0
   -1.7638    3.3732    1.8779 C   0  0  0  0  0  4           0  0  0
    1.4664    0.0000   -0.0000 C   0  0  0  0  0  4           0  0  0
   -0.3954    1.3397    2.0870 C   0  0  0  0  0  4           0  0  0
   -0.4695    2.4785   -0.1029 C   0  0  0  0  0  4           0  0  0
   -0.5476    0.0000    1.3667 C   0  0  0  0  0  4           0  0  0
   -0.5864    1.1072   -0.7764 C   0  0  0  0  0  4           0  0  0
  1 12  1  0     0  0
  2 26  1  0     0  0
  3 26  1  0     0  0
  4 26  1  0     0  0
  5 27  2  0     0  0
  6  7  1  0     0  0
  6 16  1  0     0  0
  7 13  2  0     0  0
  8 14  1  0     0  0
  8 15  2  0     0  0
  9 13  1  0     0  0
  9 14  1  0     0  0
 10 27  1  0     0  0
 10 29  1  0     0  0
 10 30  1  0     0  0
 11 28  1  0     0  0
 11 31  1  0     0  0
 11 32  1  0     0  0
 12 17  1  0     0  0
 12 18  2  0     0  0
 13 19  1  0     0  0
 14 20  2  0     0  0
 15 21  1  0     0  0
 15 28  1  0     0  0
 16 19  2  0     0  0
 17 22  2  0     0  0
 17 26  1  0     0  0
 18 23  1  0     0  0
 18 27  1  0     0  0
 20 24  1  0     0  0
 21 24  2  0     0  0
 22 25  1  0     0  0
 23 25  2  0     0  0
 29 31  1  0     0  0
 30 32  1  0     0  0
M  END
> <standard_type>
pIC50

> <# Confs.>
25

> <canonical_smiles>
FC1=C(C(N2CCN(CC3=NC(NC4=NNC=C4)=CC=C3)CC2)=O)C=CC=C1C(F)(F)F

> <standard_relation>
=

> <Publication_ID>
nan

> <predicted_activity_value>
6.292429823902063

> <actual_activity_value>
6.275724130399211

> <Compound>
17

> <standard_units>
nM

> hash
1549603100698601883

$$$$
16
XXILIB    08252103493D 0   0.00000     0.00000

 32 35  0     1  0            999 V2000
   -5.6436    1.4257   -0.9157 F   0  0  0  0  0  1           0  0  0
   -7.0336    2.0122   -2.6575 F   0  0  0  0  0  1           0  0  0
   -7.6784    4.0840   -2.6390 F   0  0  0  0  0  1           0  0  0
   -6.1545    3.4344   -4.0474 F   0  0  0  0  0  1           0  0  0
   -4.2101    1.7200    2.1113 O   0  0  0  0  0  2           0  0  0
    4.6334    4.6865    5.7149 N   0  0  0  0  0  3           0  0  0
    3.8928    4.2414    4.6883 N   0  0  0  0  0  3           0  0  0
    2.4101    1.0421    2.0002 N   0  0  0  0  0  3           0  0  0
    3.3115    1.9802    4.0317 N   0  0  0  0  0  3           0  0  0
   -2.6060    1.0723    0.5476 N   0  0  1  0  0  3           0  0  0
   -0.0000    0.0000    0.0000 N   0  0  1  0  0  3           0  0  0
   -5.0754    2.6414   -0.8615 C   0  0  0  0  0  4           0  0  0
    3.9161    2.9056    4.8228 C   0  0  0  0  0  4           0  0  0
    3.0262    2.0669    2.6483 C   0  0  0  0  0  4           0  0  0
    2.1376    1.1718    0.6765 C   0  0  0  0  0  4           0  0  0
    5.1326    3.6984    6.5058 C   0  0  0  0  0  4           0  0  0
   -5.5069    3.6164   -1.7706 C   0  0  0  0  0  4           0  0  0
   -4.0760    2.9111    0.0835 C   0  0  0  0  0  4           0  0  0
    4.6870    2.5237    5.9537 C   0  0  0  0  0  4           0  0  0
    3.3758    3.2391    1.9749 C   0  0  0  0  0  4           0  0  0
    2.4712    2.3088   -0.0493 C   0  0  0  0  0  4           0  0  0
   -4.9265    4.8863   -1.7220 C   0  0  0  0  0  4           0  0  0
   -3.5058    4.1891    0.1131 C   0  0  0  0  0  4           0  0  0
    3.0967    3.3532    0.6167 C   0  0  0  0  0  4           0  0  0
   -3.9314    5.1694   -0.7861 C   0  0  0  0  0  4           0  0  0
   -6.5773    3.2915   -2.7611 C   0  0  2  0  0  4           0  0  0
   -3.6483    1.8441    1.0299 C   0  0  0  0  0  4           0  0  0
    1.4664    0.0000    0.0000 C   0  0  0  0  0  4           0  0  0
   -2.0719   -0.0181    1.3574 C   0  0  0  0  0  4           0  0  0
   -2.0329    1.1727   -0.7970 C   0  0  0  0  0  4           0  0  0
   -0.5431    0.0000    1.3715 C   0  0  0  0  0  4           0  0  0
   -0.5046    1.1698   -0.7407 C   0  0  0  0  0  4           0  0  0
  1 12  1  0     0  0
  2 26  1  0     0  0
  3 26  1  0     0  0
  4 26  1  0     0  0
  5 27  2  0     0  0
  6  7  1  0     0  0
  6 16  1  0     0  0
  7 13  2  0     0  0
  8 14  1  0     0  0
  8 15  2  0     0  0
  9 13  1  0     0  0
  9 14  1  0     0  0
 10 27  1  0     0  0
 10 29  1  0     0  0
 10 30  1  0     0  0
 11 28  1  0     0  0
 11 31  1  0     0  0
 11 32  1  0     0  0
 12 17  1  0     0  0
 12 18  2  0     0  0
 13 19  1  0     0  0
 14 20  2  0     0  0
 15 21  1  0     0  0
 15 28  1  0     0  0
 16 19  2  0     0  0
 17 22  2  0     0  0
 17 26  1  0     0  0
 18 23  1  0     0  0
 18 27  1  0     0  0
 20 24  1  0     0  0
 21 24  2  0     0  0
 22 25  1  0     0  0
 23 25  2  0     0  0
 29 31  1  0     0  0
 30 32  1  0     0  0
M  END
> <standard_type>
pIC50

> <# Confs.>
25

> <canonical_smiles>
FC1=C(C(N2CCN(CC3=NC(NC4=NNC=C4)=CC=C3)CC2)=O)C=CC=C1C(F)(F)F

> <standard_relation>
=

> <Publication_ID>
nan

> <predicted_activity_value>
6.292429823902063

> <actual_activity_value>
6.275724130399211

> <Compound>
17

> <standard_units>
nM

> hash
1549603100698601883

$$$$
16
XXILIB    08252103493D 0   0.00000     0.00000

 32 35  0     1  0            999 V2000
   -4.0327    4.6075    0.6331 F   0  0  0  0  0  1           0  0  0
   -4.8934    6.4812   -0.3955 F   0  0  0  0  0  1           0  0  0
   -5.2229    6.2679   -2.5296 F   0  0  0  0  0  1           0  0  0
   -6.9116    6.2191   -1.1607 F   0  0  0  0  0  1           0  0  0
   -3.8854    2.1006    2.2039 O   0  0  0  0  0  2           0  0  0
    7.4019    0.8765   -5.1417 N   0  0  0  0  0  3           0  0  0
    6.2465    0.5469   -4.5442 N   0  0  0  0  0  3           0  0  0
    3.1774    0.8564   -1.5220 N   0  0  0  0  0  3           0  0  0
    4.8973    1.7722   -2.9441 N   0  0  0  0  0  3           0  0  0
   -2.6060    1.0723    0.5476 N   0  0  1  0  0  3           0  0  0
   -0.0000    0.0000    0.0000 N   0  0  1  0  0  3           0  0  0
   -4.6775    3.7668   -0.1922 C   0  0  0  0  0  4           0  0  0
    5.9694    1.6029   -3.7625 C   0  0  0  0  0  4           0  0  0
    3.8208    0.8815   -2.7200 C   0  0  0  0  0  4           0  0  0
    2.1376    0.0000   -1.3531 C   0  0  0  0  0  4           0  0  0
    7.8821    2.0974   -4.7814 C   0  0  0  0  0  4           0  0  0
   -5.4955    4.3138   -1.1896 C   0  0  0  0  0  4           0  0  0
   -4.5279    2.3811   -0.0449 C   0  0  0  0  0  4           0  0  0
    6.9752    2.5995   -3.8820 C   0  0  0  0  0  4           0  0  0
    3.4267    0.0463   -3.7673 C   0  0  0  0  0  4           0  0  0
    1.7070   -0.8624   -2.3539 C   0  0  0  0  0  4           0  0  0
   -6.1686    3.4501   -2.0573 C   0  0  0  0  0  4           0  0  0
   -5.2135    1.5335   -0.9229 C   0  0  0  0  0  4           0  0  0
    2.3643   -0.8313   -3.5757 C   0  0  0  0  0  4           0  0  0
   -6.0285    2.0685   -1.9230 C   0  0  0  0  0  4           0  0  0
   -5.6268    5.7967   -1.3171 C   0  0  2  0  0  4           0  0  0
   -3.6483    1.8441    1.0299 C   0  0  0  0  0  4           0  0  0
    1.4664    0.0000    0.0000 C   0  0  0  0  0  4           0  0  0
   -2.0719   -0.0181    1.3574 C   0  0  0  0  0  4           0  0  0
   -2.0329    1.1727   -0.7970 C   0  0  0  0  0  4           0  0  0
   -0.5431    0.0000    1.3715 C   0  0  0  0  0  4           0  0  0
   -0.5046    1.1698   -0.7407 C   0  0  0  0  0  4           0  0  0
  1 12  1  0     0  0
  2 26  1  0     0  0
  3 26  1  0     0  0
  4 26  1  0     0  0
  5 27  2  0     0  0
  6  7  1  0     0  0
  6 16  1  0     0  0
  7 13  2  0     0  0
  8 14  1  0     0  0
  8 15  2  0     0  0
  9 13  1  0     0  0
  9 14  1  0     0  0
 10 27  1  0     0  0
 10 29  1  0     0  0
 10 30  1  0     0  0
 11 28  1  0     0  0
 11 31  1  0     0  0
 11 32  1  0     0  0
 12 17  1  0     0  0
 12 18  2  0     0  0
 13 19  1  0     0  0
 14 20  2  0     0  0
 15 21  1  0     0  0
 15 28  1  0     0  0
 16 19  2  0     0  0
 17 22  2  0     0  0
 17 26  1  0     0  0
 18 23  1  0     0  0
 18 27  1  0     0  0
 20 24  1  0     0  0
 21 24  2  0     0  0
 22 25  1  0     0  0
 23 25  2  0     0  0
 29 31  1  0     0  0
 30 32  1  0     0  0
M  END
> <standard_type>
pIC50

> <# Confs.>
25

> <canonical_smiles>
FC1=C(C(N2CCN(CC3=NC(NC4=NNC=C4)=CC=C3)CC2)=O)C=CC=C1C(F)(F)F

> <standard_relation>
=

> <Publication_ID>
nan

> <predicted_activity_value>
6.292429823902063

> <actual_activity_value>
6.275724130399211

> <Compound>
17

> <standard_units>
nM

> hash
1549603100698601883

$$$$
16
XXILIB    08252103493D 0   0.00000     0.00000

 32 35  0     1  0            999 V2000
   -4.0537   -3.3919    0.4145 F   0  0  0  0  0  1           0  0  0
   -5.6290   -4.1552   -1.0840 F   0  0  0  0  0  1           0  0  0
   -4.8143   -5.2559   -2.7673 F   0  0  0  0  0  1           0  0  0
   -5.8057   -6.3213   -1.1517 F   0  0  0  0  0  1           0  0  0
   -1.9636   -3.5472    3.0415 O   0  0  0  0  0  2           0  0  0
    3.3196   -2.7641   -7.1667 N   0  0  0  0  0  3           0  0  0
    3.1323   -1.9868   -6.0890 N   0  0  0  0  0  3           0  0  0
    2.4101   -1.2112   -1.9026 N   0  0  0  0  0  3           0  0  0
    3.3203   -2.5014   -3.7264 N   0  0  0  0  0  3           0  0  0
   -0.9074   -2.4539    1.2732 N   0  0  1  0  0  3           0  0  0
    0.0000   -0.0000    0.0000 N   0  0  1  0  0  3           0  0  0
   -3.2452   -4.4457    0.2157 C   0  0  0  0  0  4           0  0  0
    3.3725   -2.8037   -5.0507 C   0  0  0  0  0  4           0  0  0
    3.0020   -1.2601   -3.1261 C   0  0  0  0  0  4           0  0  0
    2.1376    0.0000   -1.3531 C   0  0  0  0  0  4           0  0  0
    3.6704   -4.0448   -6.8705 C   0  0  0  0  0  4           0  0  0
   -3.6527   -5.4325   -0.6917 C   0  0  0  0  0  4           0  0  0
   -2.0303   -4.5427    0.9077 C   0  0  0  0  0  4           0  0  0
    3.7129   -4.1080   -5.5003 C   0  0  0  0  0  4           0  0  0
    3.3306   -0.0908   -3.8150 C   0  0  0  0  0  4           0  0  0
    2.4307    1.1971   -1.9949 C   0  0  0  0  0  4           0  0  0
   -2.8189   -6.5319   -0.9105 C   0  0  0  0  0  4           0  0  0
   -1.2111   -5.6539    0.6758 C   0  0  0  0  0  4           0  0  0
    3.0375    1.1426   -3.2417 C   0  0  0  0  0  4           0  0  0
   -1.6062   -6.6413   -0.2294 C   0  0  0  0  0  4           0  0  0
   -4.9537   -5.2918   -1.4128 C   0  0  2  0  0  4           0  0  0
   -1.6378   -3.4703    1.8632 C   0  0  0  0  0  4           0  0  0
    1.4664   -0.0000    0.0000 C   0  0  0  0  0  4           0  0  0
   -0.4507   -1.3309    2.0892 C   0  0  0  0  0  4           0  0  0
   -0.3928   -2.4834   -0.1005 C   0  0  0  0  0  4           0  0  0
   -0.5918    0.0000    1.3486 C   0  0  0  0  0  4           0  0  0
   -0.5470   -1.1215   -0.7806 C   0  0  0  0  0  4           0  0  0
  1 12  1  0     0  0
  2 26  1  0     0  0
  3 26  1  0     0  0
  4 26  1  0     0  0
  5 27  2  0     0  0
  6  7  1  0     0  0
  6 16  1  0     0  0
  7 13  2  0     0  0
  8 14  1  0     0  0
  8 15  2  0     0  0
  9 13  1  0     0  0
  9 14  1  0     0  0
 10 27  1  0     0  0
 10 29  1  0     0  0
 10 30  1  0     0  0
 11 28  1  0     0  0
 11 31  1  0     0  0
 11 32  1  0     0  0
 12 17  1  0     0  0
 12 18  2  0     0  0
 13 19  1  0     0  0
 14 20  2  0     0  0
 15 21  1  0     0  0
 15 28  1  0     0  0
 16 19  2  0     0  0
 17 22  2  0     0  0
 17 26  1  0     0  0
 18 23  1  0     0  0
 18 27  1  0     0  0
 20 24  1  0     0  0
 21 24  2  0     0  0
 22 25  1  0     0  0
 23 25  2  0     0  0
 29 31  1  0     0  0
 30 32  1  0     0  0
M  END
> <standard_type>
pIC50

> <# Confs.>
25

> <canonical_smiles>
FC1=C(C(N2CCN(CC3=NC(NC4=NNC=C4)=CC=C3)CC2)=O)C=CC=C1C(F)(F)F

> <standard_relation>
=

> <Publication_ID>
nan

> <predicted_activity_value>
6.292429823902063

> <actual_activity_value>
6.275724130399211

> <Compound>
17

> <standard_units>
nM

> hash
1549603100698601883

$$$$
16
XXILIB    08252103493D 0   0.00000     0.00000

 32 35  0     1  0            999 V2000
   -2.5206    4.4265    1.0560 F   0  0  0  0  0  1           0  0  0
   -2.2375    6.6012    0.3487 F   0  0  0  0  0  1           0  0  0
   -2.5453    6.9059   -1.7776 F   0  0  0  0  0  1           0  0  0
   -4.0646    7.5438   -0.3589 F   0  0  0  0  0  1           0  0  0
   -4.2101    1.7200    2.1113 O   0  0  0  0  0  2           0  0  0
    6.0510    3.6511    5.2997 N   0  0  0  0  0  3           0  0  0
    5.3063    3.3459    4.2260 N   0  0  0  0  0  3           0  0  0
    2.4101    1.0421    2.0002 N   0  0  0  0  0  3           0  0  0
    3.3115    1.9802    4.0317 N   0  0  0  0  0  3           0  0  0
   -2.6060    1.0723    0.5476 N   0  0  1  0  0  3           0  0  0
   -0.0000    0.0000    0.0000 N   0  0  1  0  0  3           0  0  0
   -3.4757    4.1761    0.1457 C   0  0  0  0  0  4           0  0  0
    4.3343    2.5590    4.7149 C   0  0  0  0  0  4           0  0  0
    3.0262    2.0669    2.6483 C   0  0  0  0  0  4           0  0  0
    2.1376    1.1718    0.6765 C   0  0  0  0  0  4           0  0  0
    5.6029    3.0975    6.4588 C   0  0  0  0  0  4           0  0  0
   -3.8488    5.2081   -0.7254 C   0  0  0  0  0  4           0  0  0
   -4.0760    2.9111    0.0835 C   0  0  0  0  0  4           0  0  0
    4.4862    2.3772    6.1159 C   0  0  0  0  0  4           0  0  0
    3.3758    3.2391    1.9749 C   0  0  0  0  0  4           0  0  0
    2.4712    2.3088   -0.0493 C   0  0  0  0  0  4           0  0  0
   -4.8385    4.9592   -1.6797 C   0  0  0  0  0  4           0  0  0
   -5.0676    2.6838   -0.8781 C   0  0  0  0  0  4           0  0  0
    3.0967    3.3532    0.6167 C   0  0  0  0  0  4           0  0  0
   -5.4441    3.7046   -1.7538 C   0  0  0  0  0  4           0  0  0
   -3.1831    6.5423   -0.6302 C   0  0  2  0  0  4           0  0  0
   -3.6483    1.8441    1.0299 C   0  0  0  0  0  4           0  0  0
    1.4664    0.0000    0.0000 C   0  0  0  0  0  4           0  0  0
   -2.0719   -0.0181    1.3574 C   0  0  0  0  0  4           0  0  0
   -2.0329    1.1727   -0.7970 C   0  0  0  0  0  4           0  0  0
   -0.5431    0.0000    1.3715 C   0  0  0  0  0  4           0  0  0
   -0.5046    1.1698   -0.7407 C   0  0  0  0  0  4           0  0  0
  1 12  1  0     0  0
  2 26  1  0     0  0
  3 26  1  0     0  0
  4 26  1  0     0  0
  5 27  2  0     0  0
  6  7  1  0     0  0
  6 16  1  0     0  0
  7 13  2  0     0  0
  8 14  1  0     0  0
  8 15  2  0     0  0
  9 13  1  0     0  0
  9 14  1  0     0  0
 10 27  1  0     0  0
 10 29  1  0     0  0
 10 30  1  0     0  0
 11 28  1  0     0  0
 11 31  1  0     0  0
 11 32  1  0     0  0
 12 17  1  0     0  0
 12 18  2  0     0  0
 13 19  1  0     0  0
 14 20  2  0     0  0
 15 21  1  0     0  0
 15 28  1  0     0  0
 16 19  2  0     0  0
 17 22  2  0     0  0
 17 26  1  0     0  0
 18 23  1  0     0  0
 18 27  1  0     0  0
 20 24  1  0     0  0
 21 24  2  0     0  0
 22 25  1  0     0  0
 23 25  2  0     0  0
 29 31  1  0     0  0
 30 32  1  0     0  0
M  END
> <standard_type>
pIC50

> <# Confs.>
25

> <canonical_smiles>
FC1=C(C(N2CCN(CC3=NC(NC4=NNC=C4)=CC=C3)CC2)=O)C=CC=C1C(F)(F)F

> <standard_relation>
=

> <Publication_ID>
nan

> <predicted_activity_value>
6.292429823902063

> <actual_activity_value>
6.275724130399211

> <Compound>
17

> <standard_units>
nM

> hash
1549603100698601883

$$$$
16
XXILIB    08252103493D 0   0.00000     0.00000

 32 35  0     1  0            999 V2000
   -4.0537   -3.3919    0.4145 F   0  0  0  0  0  1           0  0  0
   -5.6290   -4.1552   -1.0840 F   0  0  0  0  0  1           0  0  0
   -4.8143   -5.2559   -2.7673 F   0  0  0  0  0  1           0  0  0
   -5.8057   -6.3213   -1.1517 F   0  0  0  0  0  1           0  0  0
   -1.9636   -3.5472    3.0415 O   0  0  0  0  0  2           0  0  0
    5.4705   -3.0325   -6.0998 N   0  0  0  0  0  3           0  0  0
    4.7092   -2.2629   -5.3068 N   0  0  0  0  0  3           0  0  0
    3.1774   -0.8564   -1.5220 N   0  0  0  0  0  3           0  0  0
    4.9035   -1.7653   -2.9410 N   0  0  0  0  0  3           0  0  0
   -0.9074   -2.4539    1.2732 N   0  0  1  0  0  3           0  0  0
    0.0000   -0.0000    0.0000 N   0  0  1  0  0  3           0  0  0
   -3.2452   -4.4457    0.2157 C   0  0  0  0  0  4           0  0  0
    5.2893   -2.3621   -4.0999 C   0  0  0  0  0  4           0  0  0
    3.8038   -0.9005   -2.7284 C   0  0  0  0  0  4           0  0  0
    2.1376    0.0000   -1.3531 C   0  0  0  0  0  4           0  0  0
    6.5156   -3.6228   -5.4592 C   0  0  0  0  0  4           0  0  0
   -3.6527   -5.4325   -0.6917 C   0  0  0  0  0  4           0  0  0
   -2.0303   -4.5427    0.9077 C   0  0  0  0  0  4           0  0  0
    6.4284   -3.2100   -4.1533 C   0  0  0  0  0  4           0  0  0
    3.3947   -0.0820   -3.7832 C   0  0  0  0  0  4           0  0  0
    1.6783    0.8305   -2.3681 C   0  0  0  0  0  4           0  0  0
   -2.8189   -6.5319   -0.9105 C   0  0  0  0  0  4           0  0  0
   -1.2111   -5.6539    0.6758 C   0  0  0  0  0  4           0  0  0
    2.3224    0.7845   -3.5964 C   0  0  0  0  0  4           0  0  0
   -1.6062   -6.6413   -0.2294 C   0  0  0  0  0  4           0  0  0
   -4.9537   -5.2918   -1.4128 C   0  0  2  0  0  4           0  0  0
   -1.6378   -3.4703    1.8632 C   0  0  0  0  0  4           0  0  0
    1.4664    0.0000    0.0000 C   0  0  0  0  0  4           0  0  0
   -0.4507   -1.3309    2.0892 C   0  0  0  0  0  4           0  0  0
   -0.3928   -2.4834   -0.1005 C   0  0  0  0  0  4           0  0  0
   -0.5918    0.0000    1.3486 C   0  0  0  0  0  4           0  0  0
   -0.5470   -1.1215   -0.7806 C   0  0  0  0  0  4           0  0  0
  1 12  1  0     0  0
  2 26  1  0     0  0
  3 26  1  0     0  0
  4 26  1  0     0  0
  5 27  2  0     0  0
  6  7  1  0     0  0
  6 16  1  0     0  0
  7 13  2  0     0  0
  8 14  1  0     0  0
  8 15  2  0     0  0
  9 13  1  0     0  0
  9 14  1  0     0  0
 10 27  1  0     0  0
 10 29  1  0     0  0
 10 30  1  0     0  0
 11 28  1  0     0  0
 11 31  1  0     0  0
 11 32  1  0     0  0
 12 17  1  0     0  0
 12 18  2  0     0  0
 13 19  1  0     0  0
 14 20  2  0     0  0
 15 21  1  0     0  0
 15 28  1  0     0  0
 16 19  2  0     0  0
 17 22  2  0     0  0
 17 26  1  0     0  0
 18 23  1  0     0  0
 18 27  1  0     0  0
 20 24  1  0     0  0
 21 24  2  0     0  0
 22 25  1  0     0  0
 23 25  2  0     0  0
 29 31  1  0     0  0
 30 32  1  0     0  0
M  END
> <standard_type>
pIC50

> <# Confs.>
25

> <canonical_smiles>
FC1=C(C(N2CCN(CC3=NC(NC4=NNC=C4)=CC=C3)CC2)=O)C=CC=C1C(F)(F)F

> <standard_relation>
=

> <Publication_ID>
nan

> <predicted_activity_value>
6.292429823902063

> <actual_activity_value>
6.275724130399211

> <Compound>
17

> <standard_units>
nM

> hash
1549603100698601883

$$$$
16
XXILIB    08252103493D 0   0.00000     0.00000

 32 35  0     1  0            999 V2000
   -0.0179   -5.7237    1.3739 F   0  0  0  0  0  1           0  0  0
    0.5417   -7.7356    0.3998 F   0  0  0  0  0  1           0  0  0
   -1.1471   -9.0235   -0.0450 F   0  0  0  0  0  1           0  0  0
   -0.1515   -7.9464   -1.6502 F   0  0  0  0  0  1           0  0  0
   -1.9636   -3.5472    3.0415 O   0  0  0  0  0  2           0  0  0
    7.4019    4.0146    3.3299 N   0  0  0  0  0  3           0  0  0
    6.2465    3.6620    2.7458 N   0  0  0  0  0  3           0  0  0
    3.1774    0.8899    1.5027 N   0  0  0  0  0  3           0  0  0
    4.8973    1.6636    3.0069 N   0  0  0  0  0  3           0  0  0
   -0.9074   -2.4539    1.2732 N   0  0  1  0  0  3           0  0  0
    0.0000   -0.0000    0.0000 N   0  0  1  0  0  3           0  0  0
   -1.1814   -5.6400    0.7084 C   0  0  0  0  0  4           0  0  0
    5.9694    2.4570    3.2694 C   0  0  0  0  0  4           0  0  0
    3.8208    1.9148    2.1234 C   0  0  0  0  0  4           0  0  0
    2.1376    1.1718    0.6765 C   0  0  0  0  0  4           0  0  0
    7.8821    3.0921    4.2071 C   0  0  0  0  0  4           0  0  0
   -1.5121   -6.6705   -0.1815 C   0  0  0  0  0  4           0  0  0
   -2.0303   -4.5427    0.9077 C   0  0  0  0  0  4           0  0  0
    6.9752    2.0622    4.1923 C   0  0  0  0  0  4           0  0  0
    3.4267    3.2394    1.9238 C   0  0  0  0  0  4           0  0  0
    1.7070    2.4697    0.4300 C   0  0  0  0  0  4           0  0  0
   -2.7216   -6.5973   -0.8771 C   0  0  0  0  0  4           0  0  0
   -3.2359   -4.4876    0.1986 C   0  0  0  0  0  4           0  0  0
    2.3643    3.5123    1.0679 C   0  0  0  0  0  4           0  0  0
   -3.5769   -5.5114   -0.6880 C   0  0  0  0  0  4           0  0  0
   -0.5824   -7.8257   -0.3643 C   0  0  2  0  0  4           0  0  0
   -1.6378   -3.4703    1.8632 C   0  0  0  0  0  4           0  0  0
    1.4664   -0.0000    0.0000 C   0  0  0  0  0  4           0  0  0
   -0.4507   -1.3309    2.0892 C   0  0  0  0  0  4           0  0  0
   -0.3928   -2.4834   -0.1005 C   0  0  0  0  0  4           0  0  0
   -0.5918    0.0000    1.3486 C   0  0  0  0  0  4           0  0  0
   -0.5470   -1.1215   -0.7806 C   0  0  0  0  0  4           0  0  0
  1 12  1  0     0  0
  2 26  1  0     0  0
  3 26  1  0     0  0
  4 26  1  0     0  0
  5 27  2  0     0  0
  6  7  1  0     0  0
  6 16  1  0     0  0
  7 13  2  0     0  0
  8 14  1  0     0  0
  8 15  2  0     0  0
  9 13  1  0     0  0
  9 14  1  0     0  0
 10 27  1  0     0  0
 10 29  1  0     0  0
 10 30  1  0     0  0
 11 28  1  0     0  0
 11 31  1  0     0  0
 11 32  1  0     0  0
 12 17  1  0     0  0
 12 18  2  0     0  0
 13 19  1  0     0  0
 14 20  2  0     0  0
 15 21  1  0     0  0
 15 28  1  0     0  0
 16 19  2  0     0  0
 17 22  2  0     0  0
 17 26  1  0     0  0
 18 23  1  0     0  0
 18 27  1  0     0  0
 20 24  1  0     0  0
 21 24  2  0     0  0
 22 25  1  0     0  0
 23 25  2  0     0  0
 29 31  1  0     0  0
 30 32  1  0     0  0
M  END
> <standard_type>
pIC50

> <# Confs.>
25

> <canonical_smiles>
FC1=C(C(N2CCN(CC3=NC(NC4=NNC=C4)=CC=C3)CC2)=O)C=CC=C1C(F)(F)F

> <standard_relation>
=

> <Publication_ID>
nan

> <predicted_activity_value>
6.292429823902063

> <actual_activity_value>
6.275724130399211

> <Compound>
17

> <standard_units>
nM

> hash
1549603100698601883

$$$$
16
XXILIB    08252103493D 0   0.00000     0.00000

 32 35  0     1  0            999 V2000
   -4.0537   -3.3919    0.4145 F   0  0  0  0  0  1           0  0  0
   -5.6290   -4.1552   -1.0840 F   0  0  0  0  0  1           0  0  0
   -4.8143   -5.2559   -2.7673 F   0  0  0  0  0  1           0  0  0
   -5.8057   -6.3213   -1.1517 F   0  0  0  0  0  1           0  0  0
   -1.9636   -3.5472    3.0415 O   0  0  0  0  0  2           0  0  0
    7.4019    4.0146    3.3299 N   0  0  0  0  0  3           0  0  0
    6.2465    3.6620    2.7458 N   0  0  0  0  0  3           0  0  0
    3.1774    0.8899    1.5027 N   0  0  0  0  0  3           0  0  0
    4.8973    1.6636    3.0069 N   0  0  0  0  0  3           0  0  0
   -0.9074   -2.4539    1.2732 N   0  0  1  0  0  3           0  0  0
    0.0000   -0.0000    0.0000 N   0  0  1  0  0  3           0  0  0
   -3.2452   -4.4457    0.2157 C   0  0  0  0  0  4           0  0  0
    5.9694    2.4570    3.2694 C   0  0  0  0  0  4           0  0  0
    3.8208    1.9148    2.1234 C   0  0  0  0  0  4           0  0  0
    2.1376    1.1718    0.6765 C   0  0  0  0  0  4           0  0  0
    7.8821    3.0921    4.2071 C   0  0  0  0  0  4           0  0  0
   -3.6527   -5.4325   -0.6917 C   0  0  0  0  0  4           0  0  0
   -2.0303   -4.5427    0.9077 C   0  0  0  0  0  4           0  0  0
    6.9752    2.0622    4.1923 C   0  0  0  0  0  4           0  0  0
    3.4267    3.2394    1.9238 C   0  0  0  0  0  4           0  0  0
    1.7070    2.4697    0.4300 C   0  0  0  0  0  4           0  0  0
   -2.8189   -6.5319   -0.9105 C   0  0  0  0  0  4           0  0  0
   -1.2111   -5.6539    0.6758 C   0  0  0  0  0  4           0  0  0
    2.3643    3.5123    1.0679 C   0  0  0  0  0  4           0  0  0
   -1.6062   -6.6413   -0.2294 C   0  0  0  0  0  4           0  0  0
   -4.9537   -5.2918   -1.4128 C   0  0  2  0  0  4           0  0  0
   -1.6378   -3.4703    1.8632 C   0  0  0  0  0  4           0  0  0
    1.4664   -0.0000    0.0000 C   0  0  0  0  0  4           0  0  0
   -0.4507   -1.3309    2.0892 C   0  0  0  0  0  4           0  0  0
   -0.3928   -2.4834   -0.1005 C   0  0  0  0  0  4           0  0  0
   -0.5918    0.0000    1.3486 C   0  0  0  0  0  4           0  0  0
   -0.5470   -1.1215   -0.7806 C   0  0  0  0  0  4           0  0  0
  1 12  1  0     0  0
  2 26  1  0     0  0
  3 26  1  0     0  0
  4 26  1  0     0  0
  5 27  2  0     0  0
  6  7  1  0     0  0
  6 16  1  0     0  0
  7 13  2  0     0  0
  8 14  1  0     0  0
  8 15  2  0     0  0
  9 13  1  0     0  0
  9 14  1  0     0  0
 10 27  1  0     0  0
 10 29  1  0     0  0
 10 30  1  0     0  0
 11 28  1  0     0  0
 11 31  1  0     0  0
 11 32  1  0     0  0
 12 17  1  0     0  0
 12 18  2  0     0  0
 13 19  1  0     0  0
 14 20  2  0     0  0
 15 21  1  0     0  0
 15 28  1  0     0  0
 16 19  2  0     0  0
 17 22  2  0     0  0
 17 26  1  0     0  0
 18 23  1  0     0  0
 18 27  1  0     0  0
 20 24  1  0     0  0
 21 24  2  0     0  0
 22 25  1  0     0  0
 23 25  2  0     0  0
 29 31  1  0     0  0
 30 32  1  0     0  0
M  END
> <standard_type>
pIC50

> <# Confs.>
25

> <canonical_smiles>
FC1=C(C(N2CCN(CC3=NC(NC4=NNC=C4)=CC=C3)CC2)=O)C=CC=C1C(F)(F)F

> <standard_relation>
=

> <Publication_ID>
nan

> <predicted_activity_value>
6.292429823902063

> <actual_activity_value>
6.275724130399211

> <Compound>
17

> <standard_units>
nM

> hash
1549603100698601883

$$$$
16
XXILIB    08252103493D 0   0.00000     0.00000

 32 35  0     1  0            999 V2000
   -4.1529    3.0931    0.4101 F   0  0  0  0  0  1           0  0  0
   -5.7898    3.7357   -1.0791 F   0  0  0  0  0  1           0  0  0
   -6.1593    5.8728   -1.1470 F   0  0  0  0  0  1           0  0  0
   -5.0492    4.9120   -2.7510 F   0  0  0  0  0  1           0  0  0
   -2.1015    3.4107    3.0548 O   0  0  0  0  0  2           0  0  0
    7.4019    0.8765   -5.1417 N   0  0  0  0  0  3           0  0  0
    6.2465    0.5469   -4.5442 N   0  0  0  0  0  3           0  0  0
    3.1774    0.8564   -1.5220 N   0  0  0  0  0  3           0  0  0
    4.8973    1.7722   -2.9441 N   0  0  0  0  0  3           0  0  0
   -0.9454    2.4289    1.2837 N   0  0  1  0  0  3           0  0  0
   -0.0000    0.0000    0.0000 N   0  0  1  0  0  3           0  0  0
   -3.4417    4.2178    0.2286 C   0  0  0  0  0  4           0  0  0
    5.9694    1.6029   -3.7625 C   0  0  0  0  0  4           0  0  0
    3.8208    0.8815   -2.7200 C   0  0  0  0  0  4           0  0  0
    2.1376    0.0000   -1.3531 C   0  0  0  0  0  4           0  0  0
    7.8821    2.0974   -4.7814 C   0  0  0  0  0  4           0  0  0
   -3.9290    5.1724   -0.6739 C   0  0  0  0  0  4           0  0  0
   -2.2439    4.4152    0.9289 C   0  0  0  0  0  4           0  0  0
    6.9752    2.5995   -3.8820 C   0  0  0  0  0  4           0  0  0
    3.4267    0.0463   -3.7673 C   0  0  0  0  0  4           0  0  0
    1.7070   -0.8624   -2.3539 C   0  0  0  0  0  4           0  0  0
   -3.2006    6.3486   -0.8687 C   0  0  0  0  0  4           0  0  0
   -1.5281    5.5993    0.7168 C   0  0  0  0  0  4           0  0  0
    2.3643   -0.8313   -3.5757 C   0  0  0  0  0  4           0  0  0
   -2.0070    6.5591   -0.1778 C   0  0  0  0  0  4           0  0  0
   -5.2120    4.9271   -1.3993 C   0  0  2  0  0  4           0  0  0
   -1.7638    3.3732    1.8779 C   0  0  0  0  0  4           0  0  0
    1.4664    0.0000    0.0000 C   0  0  0  0  0  4           0  0  0
   -0.3954    1.3397    2.0870 C   0  0  0  0  0  4           0  0  0
   -0.4695    2.4785   -0.1029 C   0  0  0  0  0  4           0  0  0
   -0.5476    0.0000    1.3667 C   0  0  0  0  0  4           0  0  0
   -0.5864    1.1072   -0.7764 C   0  0  0  0  0  4           0  0  0
  1 12  1  0     0  0
  2 26  1  0     0  0
  3 26  1  0     0  0
  4 26  1  0     0  0
  5 27  2  0     0  0
  6  7  1  0     0  0
  6 16  1  0     0  0
  7 13  2  0     0  0
  8 14  1  0     0  0
  8 15  2  0     0  0
  9 13  1  0     0  0
  9 14  1  0     0  0
 10 27  1  0     0  0
 10 29  1  0     0  0
 10 30  1  0     0  0
 11 28  1  0     0  0
 11 31  1  0     0  0
 11 32  1  0     0  0
 12 17  1  0     0  0
 12 18  2  0     0  0
 13 19  1  0     0  0
 14 20  2  0     0  0
 15 21  1  0     0  0
 15 28  1  0     0  0
 16 19  2  0     0  0
 17 22  2  0     0  0
 17 26  1  0     0  0
 18 23  1  0     0  0
 18 27  1  0     0  0
 20 24  1  0     0  0
 21 24  2  0     0  0
 22 25  1  0     0  0
 23 25  2  0     0  0
 29 31  1  0     0  0
 30 32  1  0     0  0
M  END
> <standard_type>
pIC50

> <# Confs.>
25

> <canonical_smiles>
FC1=C(C(N2CCN(CC3=NC(NC4=NNC=C4)=CC=C3)CC2)=O)C=CC=C1C(F)(F)F

> <standard_relation>
=

> <Publication_ID>
nan

> <predicted_activity_value>
6.292429823902063

> <actual_activity_value>
6.275724130399211

> <Compound>
17

> <standard_units>
nM

> hash
1549603100698601883

$$$$
16
XXILIB    08252103493D 0   0.00000     0.00000

 32 35  0     1  0            999 V2000
   -0.0179   -5.7237    1.3739 F   0  0  0  0  0  1           0  0  0
    0.5417   -7.7356    0.3998 F   0  0  0  0  0  1           0  0  0
   -1.1471   -9.0235   -0.0450 F   0  0  0  0  0  1           0  0  0
   -0.1515   -7.9464   -1.6502 F   0  0  0  0  0  1           0  0  0
   -1.9636   -3.5472    3.0415 O   0  0  0  0  0  2           0  0  0
    5.4705   -3.0325   -6.0998 N   0  0  0  0  0  3           0  0  0
    4.7092   -2.2629   -5.3068 N   0  0  0  0  0  3           0  0  0
    3.1774   -0.8564   -1.5220 N   0  0  0  0  0  3           0  0  0
    4.9035   -1.7653   -2.9410 N   0  0  0  0  0  3           0  0  0
   -0.9074   -2.4539    1.2732 N   0  0  1  0  0  3           0  0  0
    0.0000   -0.0000    0.0000 N   0  0  1  0  0  3           0  0  0
   -1.1814   -5.6400    0.7084 C   0  0  0  0  0  4           0  0  0
    5.2893   -2.3621   -4.0999 C   0  0  0  0  0  4           0  0  0
    3.8038   -0.9005   -2.7284 C   0  0  0  0  0  4           0  0  0
    2.1376    0.0000   -1.3531 C   0  0  0  0  0  4           0  0  0
    6.5156   -3.6228   -5.4592 C   0  0  0  0  0  4           0  0  0
   -1.5121   -6.6705   -0.1815 C   0  0  0  0  0  4           0  0  0
   -2.0303   -4.5427    0.9077 C   0  0  0  0  0  4           0  0  0
    6.4284   -3.2100   -4.1533 C   0  0  0  0  0  4           0  0  0
    3.3947   -0.0820   -3.7832 C   0  0  0  0  0  4           0  0  0
    1.6783    0.8305   -2.3681 C   0  0  0  0  0  4           0  0  0
   -2.7216   -6.5973   -0.8771 C   0  0  0  0  0  4           0  0  0
   -3.2359   -4.4876    0.1986 C   0  0  0  0  0  4           0  0  0
    2.3224    0.7845   -3.5964 C   0  0  0  0  0  4           0  0  0
   -3.5769   -5.5114   -0.6880 C   0  0  0  0  0  4           0  0  0
   -0.5824   -7.8257   -0.3643 C   0  0  2  0  0  4           0  0  0
   -1.6378   -3.4703    1.8632 C   0  0  0  0  0  4           0  0  0
    1.4664    0.0000    0.0000 C   0  0  0  0  0  4           0  0  0
   -0.4507   -1.3309    2.0892 C   0  0  0  0  0  4           0  0  0
   -0.3928   -2.4834   -0.1005 C   0  0  0  0  0  4           0  0  0
   -0.5918    0.0000    1.3486 C   0  0  0  0  0  4           0  0  0
   -0.5470   -1.1215   -0.7806 C   0  0  0  0  0  4           0  0  0
  1 12  1  0     0  0
  2 26  1  0     0  0
  3 26  1  0     0  0
  4 26  1  0     0  0
  5 27  2  0     0  0
  6  7  1  0     0  0
  6 16  1  0     0  0
  7 13  2  0     0  0
  8 14  1  0     0  0
  8 15  2  0     0  0
  9 13  1  0     0  0
  9 14  1  0     0  0
 10 27  1  0     0  0
 10 29  1  0     0  0
 10 30  1  0     0  0
 11 28  1  0     0  0
 11 31  1  0     0  0
 11 32  1  0     0  0
 12 17  1  0     0  0
 12 18  2  0     0  0
 13 19  1  0     0  0
 14 20  2  0     0  0
 15 21  1  0     0  0
 15 28  1  0     0  0
 16 19  2  0     0  0
 17 22  2  0     0  0
 17 26  1  0     0  0
 18 23  1  0     0  0
 18 27  1  0     0  0
 20 24  1  0     0  0
 21 24  2  0     0  0
 22 25  1  0     0  0
 23 25  2  0     0  0
 29 31  1  0     0  0
 30 32  1  0     0  0
M  END
> <standard_type>
pIC50

> <# Confs.>
25

> <canonical_smiles>
FC1=C(C(N2CCN(CC3=NC(NC4=NNC=C4)=CC=C3)CC2)=O)C=CC=C1C(F)(F)F

> <standard_relation>
=

> <Publication_ID>
nan

> <predicted_activity_value>
6.292429823902063

> <actual_activity_value>
6.275724130399211

> <Compound>
17

> <standard_units>
nM

> hash
1549603100698601883

$$$$
15
XXILIB    08252103493D 0   0.00000     0.00000

 29 32  0     1  0            999 V2000
   -3.4356   -6.8346   -0.3391 Cl  0  0  0  0  0  1           0  0  0
    4.5956   -4.2821   -5.3410 S   0  0  0  0  0  2           0  0  0
   -2.6156   -4.4307    1.1725 F   0  0  0  0  0  1           0  0  0
   -4.1920   -1.6530    2.1281 O   0  0  0  0  0  2           0  0  0
    5.1731   -1.8051   -4.9663 N   0  0  0  0  0  3           0  0  0
    2.4104   -1.2115   -1.9022 N   0  0  0  0  0  3           0  0  0
    3.2815   -2.4971   -3.7490 N   0  0  0  0  0  3           0  0  0
   -2.6075   -1.0680    0.5484 N   0  0  2  0  0  3           0  0  0
    0.0000    0.0000    0.0000 N   0  0  2  0  0  3           0  0  0
   -4.1111   -5.2567   -0.4719 C   0  0  0  0  0  4           0  0  0
    4.3029   -2.7319   -4.6061 C   0  0  0  0  0  4           0  0  0
    5.9531   -3.6490   -6.1623 C   0  0  0  0  0  4           0  0  0
   -3.6193   -4.2140    0.3086 C   0  0  0  0  0  4           0  0  0
    3.0003   -1.2623   -3.1270 C   0  0  0  0  0  4           0  0  0
    2.1380    0.0000   -1.3533 C   0  0  0  0  0  4           0  0  0
    6.1066   -2.3214   -5.8416 C   0  0  0  0  0  4           0  0  0
   -4.1740   -2.9409    0.1928 C   0  0  0  0  0  4           0  0  0
   -5.1583   -5.0250   -1.3657 C   0  0  0  0  0  4           0  0  0
    3.3008   -0.0930   -3.8287 C   0  0  0  0  0  4           0  0  0
    2.4233    1.1969   -1.9989 C   0  0  0  0  0  4           0  0  0
   -5.2252   -2.6980   -0.6908 C   0  0  0  0  0  4           0  0  0
   -5.7135   -3.7462   -1.4720 C   0  0  0  0  0  4           0  0  0
    3.0129    1.1410   -3.2536 C   0  0  0  0  0  4           0  0  0
   -3.6615   -1.8343    1.0316 C   0  0  0  0  0  4           0  0  0
    1.4663   -0.0000   -0.0000 C   0  0  0  0  0  4           0  0  0
   -2.0707    0.0224    1.3564 C   0  0  0  0  0  4           0  0  0
   -2.0334   -1.1745   -0.7953 C   0  0  0  0  0  4           0  0  0
   -0.5423    0.0000    1.3718 C   0  0  0  0  0  4           0  0  0
   -0.5050   -1.1697   -0.7404 C   0  0  0  0  0  4           0  0  0
  1 10  1  0     0  0
  2 11  1  0     0  0
  2 12  1  0     0  0
  3 13  1  0     0  0
  4 24  2  0     0  0
  5 11  2  0     0  0
  5 16  1  0     0  0
  6 14  1  0     0  0
  6 15  2  0     0  0
  7 11  1  0     0  0
  7 14  1  0     0  0
  8 24  1  0     0  0
  8 26  1  0     0  0
  8 27  1  0     0  0
  9 25  1  0     0  0
  9 28  1  0     0  0
  9 29  1  0     0  0
 10 13  2  0     0  0
 10 18  1  0     0  0
 12 16  2  0     0  0
 13 17  1  0     0  0
 14 19  2  0     0  0
 15 20  1  0     0  0
 15 25  1  0     0  0
 17 21  2  0     0  0
 17 24  1  0     0  0
 18 22  2  0     0  0
 19 23  1  0     0  0
 20 23  2  0     0  0
 21 22  1  0     0  0
 26 28  1  0     0  0
 27 29  1  0     0  0
M  END
> <standard_type>
pIC50

> <# Confs.>
25

> <canonical_smiles>
O=C(C1=CC=CC(Cl)=C1F)N(CC2)CCN2CC3=NC(NC4=NC=CS4)=CC=C3

> <standard_relation>
=

> <Publication_ID>
nan

> <predicted_activity_value>
6.292429823902063

> <actual_activity_value>
6.356547323513812

> <Compound>
16

> <standard_units>
nM

> hash
4781207289351067986

$$$$
15
XXILIB    08252103493D 0   0.00000     0.00000

 29 32  0     1  0            999 V2000
   -3.4356   -6.8346   -0.3391 Cl  0  0  0  0  0  1           0  0  0
    4.3282   -3.9135   -5.8336 S   0  0  0  0  0  2           0  0  0
   -2.6156   -4.4307    1.1725 F   0  0  0  0  0  1           0  0  0
   -4.1920   -1.6530    2.1281 O   0  0  0  0  0  2           0  0  0
    2.5676   -2.0434   -5.9453 N   0  0  0  0  0  3           0  0  0
    2.4104   -1.2115   -1.9022 N   0  0  0  0  0  3           0  0  0
    3.2815   -2.4971   -3.7490 N   0  0  0  0  0  3           0  0  0
   -2.6075   -1.0680    0.5484 N   0  0  2  0  0  3           0  0  0
    0.0000    0.0000    0.0000 N   0  0  2  0  0  3           0  0  0
   -4.1111   -5.2567   -0.4719 C   0  0  0  0  0  4           0  0  0
    3.3106   -2.7167   -5.0847 C   0  0  0  0  0  4           0  0  0
    3.7266   -3.4787   -7.3721 C   0  0  0  0  0  4           0  0  0
   -3.6193   -4.2140    0.3086 C   0  0  0  0  0  4           0  0  0
    3.0003   -1.2623   -3.1270 C   0  0  0  0  0  4           0  0  0
    2.1380    0.0000   -1.3533 C   0  0  0  0  0  4           0  0  0
    2.8033   -2.4697   -7.2364 C   0  0  0  0  0  4           0  0  0
   -4.1740   -2.9409    0.1928 C   0  0  0  0  0  4           0  0  0
   -5.1583   -5.0250   -1.3657 C   0  0  0  0  0  4           0  0  0
    3.3008   -0.0930   -3.8287 C   0  0  0  0  0  4           0  0  0
    2.4233    1.1969   -1.9989 C   0  0  0  0  0  4           0  0  0
   -5.2252   -2.6980   -0.6908 C   0  0  0  0  0  4           0  0  0
   -5.7135   -3.7462   -1.4720 C   0  0  0  0  0  4           0  0  0
    3.0129    1.1410   -3.2536 C   0  0  0  0  0  4           0  0  0
   -3.6615   -1.8343    1.0316 C   0  0  0  0  0  4           0  0  0
    1.4663   -0.0000   -0.0000 C   0  0  0  0  0  4           0  0  0
   -2.0707    0.0224    1.3564 C   0  0  0  0  0  4           0  0  0
   -2.0334   -1.1745   -0.7953 C   0  0  0  0  0  4           0  0  0
   -0.5423    0.0000    1.3718 C   0  0  0  0  0  4           0  0  0
   -0.5050   -1.1697   -0.7404 C   0  0  0  0  0  4           0  0  0
  1 10  1  0     0  0
  2 11  1  0     0  0
  2 12  1  0     0  0
  3 13  1  0     0  0
  4 24  2  0     0  0
  5 11  2  0     0  0
  5 16  1  0     0  0
  6 14  1  0     0  0
  6 15  2  0     0  0
  7 11  1  0     0  0
  7 14  1  0     0  0
  8 24  1  0     0  0
  8 26  1  0     0  0
  8 27  1  0     0  0
  9 25  1  0     0  0
  9 28  1  0     0  0
  9 29  1  0     0  0
 10 13  2  0     0  0
 10 18  1  0     0  0
 12 16  2  0     0  0
 13 17  1  0     0  0
 14 19  2  0     0  0
 15 20  1  0     0  0
 15 25  1  0     0  0
 17 21  2  0     0  0
 17 24  1  0     0  0
 18 22  2  0     0  0
 19 23  1  0     0  0
 20 23  2  0     0  0
 21 22  1  0     0  0
 26 28  1  0     0  0
 27 29  1  0     0  0
M  END
> <standard_type>
pIC50

> <# Confs.>
25

> <canonical_smiles>
O=C(C1=CC=CC(Cl)=C1F)N(CC2)CCN2CC3=NC(NC4=NC=CS4)=CC=C3

> <standard_relation>
=

> <Publication_ID>
nan

> <predicted_activity_value>
6.292429823902063

> <actual_activity_value>
6.356547323513812

> <Compound>
16

> <standard_units>
nM

> hash
4781207289351067986

$$$$
15
XXILIB    08252103493D 0   0.00000     0.00000

 29 32  0     1  0            999 V2000
   -6.9598   -3.4691   -2.6266 Cl  0  0  0  0  0  1           0  0  0
    4.5956   -4.2821   -5.3410 S   0  0  0  0  0  2           0  0  0
   -5.7457   -1.4799   -0.8086 F   0  0  0  0  0  1           0  0  0
   -4.1920   -1.6530    2.1281 O   0  0  0  0  0  2           0  0  0
    5.1731   -1.8051   -4.9663 N   0  0  0  0  0  3           0  0  0
    2.4104   -1.2115   -1.9022 N   0  0  0  0  0  3           0  0  0
    3.2815   -2.4971   -3.7490 N   0  0  0  0  0  3           0  0  0
   -2.6075   -1.0680    0.5484 N   0  0  2  0  0  3           0  0  0
    0.0000    0.0000    0.0000 N   0  0  2  0  0  3           0  0  0
   -5.6815   -3.7451   -1.5070 C   0  0  0  0  0  4           0  0  0
    4.3029   -2.7319   -4.6061 C   0  0  0  0  0  4           0  0  0
    5.9531   -3.6490   -6.1623 C   0  0  0  0  0  4           0  0  0
   -5.2093   -2.7060   -0.7097 C   0  0  0  0  0  4           0  0  0
    3.0003   -1.2623   -3.1270 C   0  0  0  0  0  4           0  0  0
    2.1380    0.0000   -1.3533 C   0  0  0  0  0  4           0  0  0
    6.1066   -2.3214   -5.8416 C   0  0  0  0  0  4           0  0  0
   -4.1740   -2.9409    0.1928 C   0  0  0  0  0  4           0  0  0
   -5.1160   -5.0173   -1.4018 C   0  0  0  0  0  4           0  0  0
    3.3008   -0.0930   -3.8287 C   0  0  0  0  0  4           0  0  0
    2.4233    1.1969   -1.9989 C   0  0  0  0  0  4           0  0  0
   -3.5957   -4.2053    0.3024 C   0  0  0  0  0  4           0  0  0
   -4.0736   -5.2437   -0.4979 C   0  0  0  0  0  4           0  0  0
    3.0129    1.1410   -3.2536 C   0  0  0  0  0  4           0  0  0
   -3.6615   -1.8343    1.0316 C   0  0  0  0  0  4           0  0  0
    1.4663   -0.0000   -0.0000 C   0  0  0  0  0  4           0  0  0
   -2.0707    0.0224    1.3564 C   0  0  0  0  0  4           0  0  0
   -2.0334   -1.1745   -0.7953 C   0  0  0  0  0  4           0  0  0
   -0.5423    0.0000    1.3718 C   0  0  0  0  0  4           0  0  0
   -0.5050   -1.1697   -0.7404 C   0  0  0  0  0  4           0  0  0
  1 10  1  0     0  0
  2 11  1  0     0  0
  2 12  1  0     0  0
  3 13  1  0     0  0
  4 24  2  0     0  0
  5 11  2  0     0  0
  5 16  1  0     0  0
  6 14  1  0     0  0
  6 15  2  0     0  0
  7 11  1  0     0  0
  7 14  1  0     0  0
  8 24  1  0     0  0
  8 26  1  0     0  0
  8 27  1  0     0  0
  9 25  1  0     0  0
  9 28  1  0     0  0
  9 29  1  0     0  0
 10 13  2  0     0  0
 10 18  1  0     0  0
 12 16  2  0     0  0
 13 17  1  0     0  0
 14 19  2  0     0  0
 15 20  1  0     0  0
 15 25  1  0     0  0
 17 21  2  0     0  0
 17 24  1  0     0  0
 18 22  2  0     0  0
 19 23  1  0     0  0
 20 23  2  0     0  0
 21 22  1  0     0  0
 26 28  1  0     0  0
 27 29  1  0     0  0
M  END
> <standard_type>
pIC50

> <# Confs.>
25

> <canonical_smiles>
O=C(C1=CC=CC(Cl)=C1F)N(CC2)CCN2CC3=NC(NC4=NC=CS4)=CC=C3

> <standard_relation>
=

> <Publication_ID>
nan

> <predicted_activity_value>
6.292429823902063

> <actual_activity_value>
6.356547323513812

> <Compound>
16

> <standard_units>
nM

> hash
4781207289351067986

$$$$
15
XXILIB    08252103493D 0   0.00000     0.00000

 29 32  0     1  0            999 V2000
   -3.4356   -6.8346   -0.3391 Cl  0  0  0  0  0  1           0  0  0
    6.8529    2.5938    4.6684 S   0  0  0  0  0  2           0  0  0
   -2.6156   -4.4307    1.1725 F   0  0  0  0  0  1           0  0  0
   -4.1920   -1.6530    2.1281 O   0  0  0  0  0  2           0  0  0
    6.3952    3.3668    2.2596 N   0  0  0  0  0  3           0  0  0
    3.1777    0.8892    1.5025 N   0  0  0  0  0  3           0  0  0
    4.9255    1.6716    2.9706 N   0  0  0  0  0  3           0  0  0
   -2.6075   -1.0680    0.5484 N   0  0  2  0  0  3           0  0  0
    0.0000    0.0000    0.0000 N   0  0  2  0  0  3           0  0  0
   -4.1111   -5.2567   -0.4719 C   0  0  0  0  0  4           0  0  0
    5.9619    2.5185    3.1753 C   0  0  0  0  0  4           0  0  0
    7.8458    3.8269    4.0268 C   0  0  0  0  0  4           0  0  0
   -3.6193   -4.2140    0.3086 C   0  0  0  0  0  4           0  0  0
    3.8245    1.9132    2.1221 C   0  0  0  0  0  4           0  0  0
    2.1380    1.1720    0.6767 C   0  0  0  0  0  4           0  0  0
    7.4557    4.1079    2.7392 C   0  0  0  0  0  4           0  0  0
   -4.1740   -2.9409    0.1928 C   0  0  0  0  0  4           0  0  0
   -5.1583   -5.0250   -1.3657 C   0  0  0  0  0  4           0  0  0
    3.4499    3.2396    1.8982 C   0  0  0  0  0  4           0  0  0
    1.7133    2.4706    0.4234 C   0  0  0  0  0  4           0  0  0
   -5.2252   -2.6980   -0.6908 C   0  0  0  0  0  4           0  0  0
   -5.7135   -3.7462   -1.4720 C   0  0  0  0  0  4           0  0  0
    2.3838    3.5132    1.0468 C   0  0  0  0  0  4           0  0  0
   -3.6615   -1.8343    1.0316 C   0  0  0  0  0  4           0  0  0
    1.4663    0.0000   -0.0000 C   0  0  0  0  0  4           0  0  0
   -2.0707    0.0224    1.3564 C   0  0  0  0  0  4           0  0  0
   -2.0334   -1.1745   -0.7953 C   0  0  0  0  0  4           0  0  0
   -0.5423    0.0000    1.3718 C   0  0  0  0  0  4           0  0  0
   -0.5050   -1.1697   -0.7404 C   0  0  0  0  0  4           0  0  0
  1 10  1  0     0  0
  2 11  1  0     0  0
  2 12  1  0     0  0
  3 13  1  0     0  0
  4 24  2  0     0  0
  5 11  2  0     0  0
  5 16  1  0     0  0
  6 14  1  0     0  0
  6 15  2  0     0  0
  7 11  1  0     0  0
  7 14  1  0     0  0
  8 24  1  0     0  0
  8 26  1  0     0  0
  8 27  1  0     0  0
  9 25  1  0     0  0
  9 28  1  0     0  0
  9 29  1  0     0  0
 10 13  2  0     0  0
 10 18  1  0     0  0
 12 16  2  0     0  0
 13 17  1  0     0  0
 14 19  2  0     0  0
 15 20  1  0     0  0
 15 25  1  0     0  0
 17 21  2  0     0  0
 17 24  1  0     0  0
 18 22  2  0     0  0
 19 23  1  0     0  0
 20 23  2  0     0  0
 21 22  1  0     0  0
 26 28  1  0     0  0
 27 29  1  0     0  0
M  END
> <standard_type>
pIC50

> <# Confs.>
25

> <canonical_smiles>
O=C(C1=CC=CC(Cl)=C1F)N(CC2)CCN2CC3=NC(NC4=NC=CS4)=CC=C3

> <standard_relation>
=

> <Publication_ID>
nan

> <predicted_activity_value>
6.292429823902063

> <actual_activity_value>
6.356547323513812

> <Compound>
16

> <standard_units>
nM

> hash
4781207289351067986

$$$$
15
XXILIB    08252103493D 0   0.00000     0.00000

 29 32  0     1  0            999 V2000
   -6.9598   -3.4691   -2.6266 Cl  0  0  0  0  0  1           0  0  0
    4.3282   -3.9135   -5.8336 S   0  0  0  0  0  2           0  0  0
   -5.7457   -1.4799   -0.8086 F   0  0  0  0  0  1           0  0  0
   -4.1920   -1.6530    2.1281 O   0  0  0  0  0  2           0  0  0
    2.5676   -2.0434   -5.9453 N   0  0  0  0  0  3           0  0  0
    2.4104   -1.2115   -1.9022 N   0  0  0  0  0  3           0  0  0
    3.2815   -2.4971   -3.7490 N   0  0  0  0  0  3           0  0  0
   -2.6075   -1.0680    0.5484 N   0  0  2  0  0  3           0  0  0
    0.0000    0.0000    0.0000 N   0  0  2  0  0  3           0  0  0
   -5.6815   -3.7451   -1.5070 C   0  0  0  0  0  4           0  0  0
    3.3106   -2.7167   -5.0847 C   0  0  0  0  0  4           0  0  0
    3.7266   -3.4787   -7.3721 C   0  0  0  0  0  4           0  0  0
   -5.2093   -2.7060   -0.7097 C   0  0  0  0  0  4           0  0  0
    3.0003   -1.2623   -3.1270 C   0  0  0  0  0  4           0  0  0
    2.1380    0.0000   -1.3533 C   0  0  0  0  0  4           0  0  0
    2.8033   -2.4697   -7.2364 C   0  0  0  0  0  4           0  0  0
   -4.1740   -2.9409    0.1928 C   0  0  0  0  0  4           0  0  0
   -5.1160   -5.0173   -1.4018 C   0  0  0  0  0  4           0  0  0
    3.3008   -0.0930   -3.8287 C   0  0  0  0  0  4           0  0  0
    2.4233    1.1969   -1.9989 C   0  0  0  0  0  4           0  0  0
   -3.5957   -4.2053    0.3024 C   0  0  0  0  0  4           0  0  0
   -4.0736   -5.2437   -0.4979 C   0  0  0  0  0  4           0  0  0
    3.0129    1.1410   -3.2536 C   0  0  0  0  0  4           0  0  0
   -3.6615   -1.8343    1.0316 C   0  0  0  0  0  4           0  0  0
    1.4663   -0.0000   -0.0000 C   0  0  0  0  0  4           0  0  0
   -2.0707    0.0224    1.3564 C   0  0  0  0  0  4           0  0  0
   -2.0334   -1.1745   -0.7953 C   0  0  0  0  0  4           0  0  0
   -0.5423    0.0000    1.3718 C   0  0  0  0  0  4           0  0  0
   -0.5050   -1.1697   -0.7404 C   0  0  0  0  0  4           0  0  0
  1 10  1  0     0  0
  2 11  1  0     0  0
  2 12  1  0     0  0
  3 13  1  0     0  0
  4 24  2  0     0  0
  5 11  2  0     0  0
  5 16  1  0     0  0
  6 14  1  0     0  0
  6 15  2  0     0  0
  7 11  1  0     0  0
  7 14  1  0     0  0
  8 24  1  0     0  0
  8 26  1  0     0  0
  8 27  1  0     0  0
  9 25  1  0     0  0
  9 28  1  0     0  0
  9 29  1  0     0  0
 10 13  2  0     0  0
 10 18  1  0     0  0
 12 16  2  0     0  0
 13 17  1  0     0  0
 14 19  2  0     0  0
 15 20  1  0     0  0
 15 25  1  0     0  0
 17 21  2  0     0  0
 17 24  1  0     0  0
 18 22  2  0     0  0
 19 23  1  0     0  0
 20 23  2  0     0  0
 21 22  1  0     0  0
 26 28  1  0     0  0
 27 29  1  0     0  0
M  END
> <standard_type>
pIC50

> <# Confs.>
25

> <canonical_smiles>
O=C(C1=CC=CC(Cl)=C1F)N(CC2)CCN2CC3=NC(NC4=NC=CS4)=CC=C3

> <standard_relation>
=

> <Publication_ID>
nan

> <predicted_activity_value>
6.292429823902063

> <actual_activity_value>
6.356547323513812

> <Compound>
16

> <standard_units>
nM

> hash
4781207289351067986

$$$$
15
XXILIB    08252103493D 0   0.00000     0.00000

 29 32  0     1  0            999 V2000
   -6.9598   -3.4691   -2.6266 Cl  0  0  0  0  0  1           0  0  0
    6.8529    2.5938    4.6684 S   0  0  0  0  0  2           0  0  0
   -5.7457   -1.4799   -0.8086 F   0  0  0  0  0  1           0  0  0
   -4.1920   -1.6530    2.1281 O   0  0  0  0  0  2           0  0  0
    6.3952    3.3668    2.2596 N   0  0  0  0  0  3           0  0  0
    3.1777    0.8892    1.5025 N   0  0  0  0  0  3           0  0  0
    4.9255    1.6716    2.9706 N   0  0  0  0  0  3           0  0  0
   -2.6075   -1.0680    0.5484 N   0  0  2  0  0  3           0  0  0
    0.0000    0.0000    0.0000 N   0  0  2  0  0  3           0  0  0
   -5.6815   -3.7451   -1.5070 C   0  0  0  0  0  4           0  0  0
    5.9619    2.5185    3.1753 C   0  0  0  0  0  4           0  0  0
    7.8458    3.8269    4.0268 C   0  0  0  0  0  4           0  0  0
   -5.2093   -2.7060   -0.7097 C   0  0  0  0  0  4           0  0  0
    3.8245    1.9132    2.1221 C   0  0  0  0  0  4           0  0  0
    2.1380    1.1720    0.6767 C   0  0  0  0  0  4           0  0  0
    7.4557    4.1079    2.7392 C   0  0  0  0  0  4           0  0  0
   -4.1740   -2.9409    0.1928 C   0  0  0  0  0  4           0  0  0
   -5.1160   -5.0173   -1.4018 C   0  0  0  0  0  4           0  0  0
    3.4499    3.2396    1.8982 C   0  0  0  0  0  4           0  0  0
    1.7133    2.4706    0.4234 C   0  0  0  0  0  4           0  0  0
   -3.5957   -4.2053    0.3024 C   0  0  0  0  0  4           0  0  0
   -4.0736   -5.2437   -0.4979 C   0  0  0  0  0  4           0  0  0
    2.3838    3.5132    1.0468 C   0  0  0  0  0  4           0  0  0
   -3.6615   -1.8343    1.0316 C   0  0  0  0  0  4           0  0  0
    1.4663    0.0000   -0.0000 C   0  0  0  0  0  4           0  0  0
   -2.0707    0.0224    1.3564 C   0  0  0  0  0  4           0  0  0
   -2.0334   -1.1745   -0.7953 C   0  0  0  0  0  4           0  0  0
   -0.5423    0.0000    1.3718 C   0  0  0  0  0  4           0  0  0
   -0.5050   -1.1697   -0.7404 C   0  0  0  0  0  4           0  0  0
  1 10  1  0     0  0
  2 11  1  0     0  0
  2 12  1  0     0  0
  3 13  1  0     0  0
  4 24  2  0     0  0
  5 11  2  0     0  0
  5 16  1  0     0  0
  6 14  1  0     0  0
  6 15  2  0     0  0
  7 11  1  0     0  0
  7 14  1  0     0  0
  8 24  1  0     0  0
  8 26  1  0     0  0
  8 27  1  0     0  0
  9 25  1  0     0  0
  9 28  1  0     0  0
  9 29  1  0     0  0
 10 13  2  0     0  0
 10 18  1  0     0  0
 12 16  2  0     0  0
 13 17  1  0     0  0
 14 19  2  0     0  0
 15 20  1  0     0  0
 15 25  1  0     0  0
 17 21  2  0     0  0
 17 24  1  0     0  0
 18 22  2  0     0  0
 19 23  1  0     0  0
 20 23  2  0     0  0
 21 22  1  0     0  0
 26 28  1  0     0  0
 27 29  1  0     0  0
M  END
> <standard_type>
pIC50

> <# Confs.>
25

> <canonical_smiles>
O=C(C1=CC=CC(Cl)=C1F)N(CC2)CCN2CC3=NC(NC4=NC=CS4)=CC=C3

> <standard_relation>
=

> <Publication_ID>
nan

> <predicted_activity_value>
6.292429823902063

> <actual_activity_value>
6.356547323513812

> <Compound>
16

> <standard_units>
nM

> hash
4781207289351067986

$$$$
15
XXILIB    08252103493D 0   0.00000     0.00000

 29 32  0     1  0            999 V2000
   -3.4356   -6.8346   -0.3391 Cl  0  0  0  0  0  1           0  0  0
    4.3820    3.0722    6.2927 S   0  0  0  0  0  2           0  0  0
   -2.6156   -4.4307    1.1725 F   0  0  0  0  0  1           0  0  0
   -4.1920   -1.6530    2.1281 O   0  0  0  0  0  2           0  0  0
    5.5355    2.8513    4.0057 N   0  0  0  0  0  3           0  0  0
    2.4104    1.0416    2.0003 N   0  0  0  0  0  3           0  0  0
    3.3547    1.9667    4.0189 N   0  0  0  0  0  3           0  0  0
   -2.6075   -1.0680    0.5484 N   0  0  2  0  0  3           0  0  0
    0.0000    0.0000    0.0000 N   0  0  2  0  0  3           0  0  0
   -4.1111   -5.2567   -0.4719 C   0  0  0  0  0  4           0  0  0
    4.4009    2.5765    4.6245 C   0  0  0  0  0  4           0  0  0
    5.9712    3.6803    6.1417 C   0  0  0  0  0  4           0  0  0
   -3.6193   -4.2140    0.3086 C   0  0  0  0  0  4           0  0  0
    3.0292    2.0645    2.6495 C   0  0  0  0  0  4           0  0  0
    2.1380    1.1720    0.6767 C   0  0  0  0  0  4           0  0  0
    6.4213    3.4768    4.8591 C   0  0  0  0  0  4           0  0  0
   -4.1740   -2.9409    0.1928 C   0  0  0  0  0  4           0  0  0
   -5.1583   -5.0250   -1.3657 C   0  0  0  0  0  4           0  0  0
    3.4064    3.2238    1.9687 C   0  0  0  0  0  4           0  0  0
    2.4797    2.3053   -0.0511 C   0  0  0  0  0  4           0  0  0
   -5.2252   -2.6980   -0.6908 C   0  0  0  0  0  4           0  0  0
   -5.7135   -3.7462   -1.4720 C   0  0  0  0  0  4           0  0  0
    3.1225    3.3411    0.6115 C   0  0  0  0  0  4           0  0  0
   -3.6615   -1.8343    1.0316 C   0  0  0  0  0  4           0  0  0
    1.4663   -0.0000    0.0000 C   0  0  0  0  0  4           0  0  0
   -2.0707    0.0224    1.3564 C   0  0  0  0  0  4           0  0  0
   -2.0334   -1.1745   -0.7953 C   0  0  0  0  0  4           0  0  0
   -0.5423    0.0000    1.3718 C   0  0  0  0  0  4           0  0  0
   -0.5050   -1.1697   -0.7404 C   0  0  0  0  0  4           0  0  0
  1 10  1  0     0  0
  2 11  1  0     0  0
  2 12  1  0     0  0
  3 13  1  0     0  0
  4 24  2  0     0  0
  5 11  2  0     0  0
  5 16  1  0     0  0
  6 14  1  0     0  0
  6 15  2  0     0  0
  7 11  1  0     0  0
  7 14  1  0     0  0
  8 24  1  0     0  0
  8 26  1  0     0  0
  8 27  1  0     0  0
  9 25  1  0     0  0
  9 28  1  0     0  0
  9 29  1  0     0  0
 10 13  2  0     0  0
 10 18  1  0     0  0
 12 16  2  0     0  0
 13 17  1  0     0  0
 14 19  2  0     0  0
 15 20  1  0     0  0
 15 25  1  0     0  0
 17 21  2  0     0  0
 17 24  1  0     0  0
 18 22  2  0     0  0
 19 23  1  0     0  0
 20 23  2  0     0  0
 21 22  1  0     0  0
 26 28  1  0     0  0
 27 29  1  0     0  0
M  END
> <standard_type>
pIC50

> <# Confs.>
25

> <canonical_smiles>
O=C(C1=CC=CC(Cl)=C1F)N(CC2)CCN2CC3=NC(NC4=NC=CS4)=CC=C3

> <standard_relation>
=

> <Publication_ID>
nan

> <predicted_activity_value>
6.292429823902063

> <actual_activity_value>
6.356547323513812

> <Compound>
16

> <standard_units>
nM

> hash
4781207289351067986

$$$$
15
XXILIB    08252103493D 0   0.00000     0.00000

 29 32  0     1  0            999 V2000
   -6.9598   -3.4691   -2.6266 Cl  0  0  0  0  0  1           0  0  0
    4.3820    3.0722    6.2927 S   0  0  0  0  0  2           0  0  0
   -5.7457   -1.4799   -0.8086 F   0  0  0  0  0  1           0  0  0
   -4.1920   -1.6530    2.1281 O   0  0  0  0  0  2           0  0  0
    5.5355    2.8513    4.0057 N   0  0  0  0  0  3           0  0  0
    2.4104    1.0416    2.0003 N   0  0  0  0  0  3           0  0  0
    3.3547    1.9667    4.0189 N   0  0  0  0  0  3           0  0  0
   -2.6075   -1.0680    0.5484 N   0  0  2  0  0  3           0  0  0
    0.0000    0.0000    0.0000 N   0  0  2  0  0  3           0  0  0
   -5.6815   -3.7451   -1.5070 C   0  0  0  0  0  4           0  0  0
    4.4009    2.5765    4.6245 C   0  0  0  0  0  4           0  0  0
    5.9712    3.6803    6.1417 C   0  0  0  0  0  4           0  0  0
   -5.2093   -2.7060   -0.7097 C   0  0  0  0  0  4           0  0  0
    3.0292    2.0645    2.6495 C   0  0  0  0  0  4           0  0  0
    2.1380    1.1720    0.6767 C   0  0  0  0  0  4           0  0  0
    6.4213    3.4768    4.8591 C   0  0  0  0  0  4           0  0  0
   -4.1740   -2.9409    0.1928 C   0  0  0  0  0  4           0  0  0
   -5.1160   -5.0173   -1.4018 C   0  0  0  0  0  4           0  0  0
    3.4064    3.2238    1.9687 C   0  0  0  0  0  4           0  0  0
    2.4797    2.3053   -0.0511 C   0  0  0  0  0  4           0  0  0
   -3.5957   -4.2053    0.3024 C   0  0  0  0  0  4           0  0  0
   -4.0736   -5.2437   -0.4979 C   0  0  0  0  0  4           0  0  0
    3.1225    3.3411    0.6115 C   0  0  0  0  0  4           0  0  0
   -3.6615   -1.8343    1.0316 C   0  0  0  0  0  4           0  0  0
    1.4663   -0.0000    0.0000 C   0  0  0  0  0  4           0  0  0
   -2.0707    0.0224    1.3564 C   0  0  0  0  0  4           0  0  0
   -2.0334   -1.1745   -0.7953 C   0  0  0  0  0  4           0  0  0
   -0.5423    0.0000    1.3718 C   0  0  0  0  0  4           0  0  0
   -0.5050   -1.1697   -0.7404 C   0  0  0  0  0  4           0  0  0
  1 10  1  0     0  0
  2 11  1  0     0  0
  2 12  1  0     0  0
  3 13  1  0     0  0
  4 24  2  0     0  0
  5 11  2  0     0  0
  5 16  1  0     0  0
  6 14  1  0     0  0
  6 15  2  0     0  0
  7 11  1  0     0  0
  7 14  1  0     0  0
  8 24  1  0     0  0
  8 26  1  0     0  0
  8 27  1  0     0  0
  9 25  1  0     0  0
  9 28  1  0     0  0
  9 29  1  0     0  0
 10 13  2  0     0  0
 10 18  1  0     0  0
 12 16  2  0     0  0
 13 17  1  0     0  0
 14 19  2  0     0  0
 15 20  1  0     0  0
 15 25  1  0     0  0
 17 21  2  0     0  0
 17 24  1  0     0  0
 18 22  2  0     0  0
 19 23  1  0     0  0
 20 23  2  0     0  0
 21 22  1  0     0  0
 26 28  1  0     0  0
 27 29  1  0     0  0
M  END
> <standard_type>
pIC50

> <# Confs.>
25

> <canonical_smiles>
O=C(C1=CC=CC(Cl)=C1F)N(CC2)CCN2CC3=NC(NC4=NC=CS4)=CC=C3

> <standard_relation>
=

> <Publication_ID>
nan

> <predicted_activity_value>
6.292429823902063

> <actual_activity_value>
6.356547323513812

> <Compound>
16

> <standard_units>
nM

> hash
4781207289351067986

$$$$
15
XXILIB    08252103493D 0   0.00000     0.00000

 29 32  0     1  0            999 V2000
   -3.4356   -6.8346   -0.3391 Cl  0  0  0  0  0  1           0  0  0
    4.4832    3.0282    6.2655 S   0  0  0  0  0  2           0  0  0
   -2.6156   -4.4307    1.1725 F   0  0  0  0  0  1           0  0  0
   -4.1920   -1.6530    2.1281 O   0  0  0  0  0  2           0  0  0
    2.6822    4.0929    4.7713 N   0  0  0  0  0  3           0  0  0
    2.4104    1.0416    2.0003 N   0  0  0  0  0  3           0  0  0
    3.3547    1.9667    4.0189 N   0  0  0  0  0  3           0  0  0
   -2.6075   -1.0680    0.5484 N   0  0  2  0  0  3           0  0  0
    0.0000    0.0000    0.0000 N   0  0  2  0  0  3           0  0  0
   -4.1111   -5.2567   -0.4719 C   0  0  0  0  0  4           0  0  0
    3.4197    3.0028    4.8881 C   0  0  0  0  0  4           0  0  0
    3.8998    4.5735    6.7015 C   0  0  0  0  0  4           0  0  0
   -3.6193   -4.2140    0.3086 C   0  0  0  0  0  4           0  0  0
    3.0292    2.0645    2.6495 C   0  0  0  0  0  4           0  0  0
    2.1380    1.1720    0.6767 C   0  0  0  0  0  4           0  0  0
    2.9494    4.9787    5.7951 C   0  0  0  0  0  4           0  0  0
   -4.1740   -2.9409    0.1928 C   0  0  0  0  0  4           0  0  0
   -5.1583   -5.0250   -1.3657 C   0  0  0  0  0  4           0  0  0
    3.4064    3.2238    1.9687 C   0  0  0  0  0  4           0  0  0
    2.4797    2.3053   -0.0511 C   0  0  0  0  0  4           0  0  0
   -5.2252   -2.6980   -0.6908 C   0  0  0  0  0  4           0  0  0
   -5.7135   -3.7462   -1.4720 C   0  0  0  0  0  4           0  0  0
    3.1225    3.3411    0.6115 C   0  0  0  0  0  4           0  0  0
   -3.6615   -1.8343    1.0316 C   0  0  0  0  0  4           0  0  0
    1.4663   -0.0000    0.0000 C   0  0  0  0  0  4           0  0  0
   -2.0707    0.0224    1.3564 C   0  0  0  0  0  4           0  0  0
   -2.0334   -1.1745   -0.7953 C   0  0  0  0  0  4           0  0  0
   -0.5423    0.0000    1.3718 C   0  0  0  0  0  4           0  0  0
   -0.5050   -1.1697   -0.7404 C   0  0  0  0  0  4           0  0  0
  1 10  1  0     0  0
  2 11  1  0     0  0
  2 12  1  0     0  0
  3 13  1  0     0  0
  4 24  2  0     0  0
  5 11  2  0     0  0
  5 16  1  0     0  0
  6 14  1  0     0  0
  6 15  2  0     0  0
  7 11  1  0     0  0
  7 14  1  0     0  0
  8 24  1  0     0  0
  8 26  1  0     0  0
  8 27  1  0     0  0
  9 25  1  0     0  0
  9 28  1  0     0  0
  9 29  1  0     0  0
 10 13  2  0     0  0
 10 18  1  0     0  0
 12 16  2  0     0  0
 13 17  1  0     0  0
 14 19  2  0     0  0
 15 20  1  0     0  0
 15 25  1  0     0  0
 17 21  2  0     0  0
 17 24  1  0     0  0
 18 22  2  0     0  0
 19 23  1  0     0  0
 20 23  2  0     0  0
 21 22  1  0     0  0
 26 28  1  0     0  0
 27 29  1  0     0  0
M  END
> <standard_type>
pIC50

> <# Confs.>
25

> <canonical_smiles>
O=C(C1=CC=CC(Cl)=C1F)N(CC2)CCN2CC3=NC(NC4=NC=CS4)=CC=C3

> <standard_relation>
=

> <Publication_ID>
nan

> <predicted_activity_value>
6.292429823902063

> <actual_activity_value>
6.356547323513812

> <Compound>
16

> <standard_units>
nM

> hash
4781207289351067986

$$$$
15
XXILIB    08252103493D 0   0.00000     0.00000

 29 32  0     1  0            999 V2000
   -3.4356   -6.8346   -0.3391 Cl  0  0  0  0  0  1           0  0  0
    3.6285   -3.7948   -1.3735 S   0  0  0  0  0  2           0  0  0
   -2.6156   -4.4307    1.1725 F   0  0  0  0  0  1           0  0  0
   -4.1920   -1.6530    2.1281 O   0  0  0  0  0  2           0  0  0
    3.8214   -4.7877   -3.7371 N   0  0  0  0  0  3           0  0  0
    2.4104   -1.2115   -1.9022 N   0  0  0  0  0  3           0  0  0
    3.2815   -2.4971   -3.7490 N   0  0  0  0  0  3           0  0  0
   -2.6075   -1.0680    0.5484 N   0  0  2  0  0  3           0  0  0
    0.0000    0.0000    0.0000 N   0  0  2  0  0  3           0  0  0
   -4.1111   -5.2567   -0.4719 C   0  0  0  0  0  4           0  0  0
    3.5659   -3.6548   -3.1071 C   0  0  0  0  0  4           0  0  0
    4.0223   -5.4515   -1.5104 C   0  0  0  0  0  4           0  0  0
   -3.6193   -4.2140    0.3086 C   0  0  0  0  0  4           0  0  0
    3.0003   -1.2623   -3.1270 C   0  0  0  0  0  4           0  0  0
    2.1380    0.0000   -1.3533 C   0  0  0  0  0  4           0  0  0
    4.0823   -5.8016   -2.8381 C   0  0  0  0  0  4           0  0  0
   -4.1740   -2.9409    0.1928 C   0  0  0  0  0  4           0  0  0
   -5.1583   -5.0250   -1.3657 C   0  0  0  0  0  4           0  0  0
    3.3008   -0.0930   -3.8287 C   0  0  0  0  0  4           0  0  0
    2.4233    1.1969   -1.9989 C   0  0  0  0  0  4           0  0  0
   -5.2252   -2.6980   -0.6908 C   0  0  0  0  0  4           0  0  0
   -5.7135   -3.7462   -1.4720 C   0  0  0  0  0  4           0  0  0
    3.0129    1.1410   -3.2536 C   0  0  0  0  0  4           0  0  0
   -3.6615   -1.8343    1.0316 C   0  0  0  0  0  4           0  0  0
    1.4663   -0.0000   -0.0000 C   0  0  0  0  0  4           0  0  0
   -2.0707    0.0224    1.3564 C   0  0  0  0  0  4           0  0  0
   -2.0334   -1.1745   -0.7953 C   0  0  0  0  0  4           0  0  0
   -0.5423    0.0000    1.3718 C   0  0  0  0  0  4           0  0  0
   -0.5050   -1.1697   -0.7404 C   0  0  0  0  0  4           0  0  0
  1 10  1  0     0  0
  2 11  1  0     0  0
  2 12  1  0     0  0
  3 13  1  0     0  0
  4 24  2  0     0  0
  5 11  2  0     0  0
  5 16  1  0     0  0
  6 14  1  0     0  0
  6 15  2  0     0  0
  7 11  1  0     0  0
  7 14  1  0     0  0
  8 24  1  0     0  0
  8 26  1  0     0  0
  8 27  1  0     0  0
  9 25  1  0     0  0
  9 28  1  0     0  0
  9 29  1  0     0  0
 10 13  2  0     0  0
 10 18  1  0     0  0
 12 16  2  0     0  0
 13 17  1  0     0  0
 14 19  2  0     0  0
 15 20  1  0     0  0
 15 25  1  0     0  0
 17 21  2  0     0  0
 17 24  1  0     0  0
 18 22  2  0     0  0
 19 23  1  0     0  0
 20 23  2  0     0  0
 21 22  1  0     0  0
 26 28  1  0     0  0
 27 29  1  0     0  0
M  END
> <standard_type>
pIC50

> <# Confs.>
25

> <canonical_smiles>
O=C(C1=CC=CC(Cl)=C1F)N(CC2)CCN2CC3=NC(NC4=NC=CS4)=CC=C3

> <standard_relation>
=

> <Publication_ID>
nan

> <predicted_activity_value>
6.292429823902063

> <actual_activity_value>
6.356547323513812

> <Compound>
16

> <standard_units>
nM

> hash
4781207289351067986

$$$$
15
XXILIB    08252103493D 0   0.00000     0.00000

 29 32  0     1  0            999 V2000
   -3.4356   -6.8346   -0.3391 Cl  0  0  0  0  0  1           0  0  0
    1.1748   -3.7574   -2.5569 S   0  0  0  0  0  2           0  0  0
   -2.6156   -4.4307    1.1725 F   0  0  0  0  0  1           0  0  0
   -4.1920   -1.6530    2.1281 O   0  0  0  0  0  2           0  0  0
    2.8778   -4.7727   -4.1935 N   0  0  0  0  0  3           0  0  0
    2.4104   -1.2115   -1.9022 N   0  0  0  0  0  3           0  0  0
    3.2815   -2.4971   -3.7490 N   0  0  0  0  0  3           0  0  0
   -2.6075   -1.0680    0.5484 N   0  0  2  0  0  3           0  0  0
    0.0000    0.0000    0.0000 N   0  0  2  0  0  3           0  0  0
   -4.1111   -5.2567   -0.4719 C   0  0  0  0  0  4           0  0  0
    2.5736   -3.6396   -3.5857 C   0  0  0  0  0  4           0  0  0
    1.0012   -5.4076   -2.9629 C   0  0  0  0  0  4           0  0  0
   -3.6193   -4.2140    0.3086 C   0  0  0  0  0  4           0  0  0
    3.0003   -1.2623   -3.1270 C   0  0  0  0  0  4           0  0  0
    2.1380    0.0000   -1.3533 C   0  0  0  0  0  4           0  0  0
    1.9938   -5.7719   -3.8409 C   0  0  0  0  0  4           0  0  0
   -4.1740   -2.9409    0.1928 C   0  0  0  0  0  4           0  0  0
   -5.1583   -5.0250   -1.3657 C   0  0  0  0  0  4           0  0  0
    3.3008   -0.0930   -3.8287 C   0  0  0  0  0  4           0  0  0
    2.4233    1.1969   -1.9989 C   0  0  0  0  0  4           0  0  0
   -5.2252   -2.6980   -0.6908 C   0  0  0  0  0  4           0  0  0
   -5.7135   -3.7462   -1.4720 C   0  0  0  0  0  4           0  0  0
    3.0129    1.1410   -3.2536 C   0  0  0  0  0  4           0  0  0
   -3.6615   -1.8343    1.0316 C   0  0  0  0  0  4           0  0  0
    1.4663   -0.0000   -0.0000 C   0  0  0  0  0  4           0  0  0
   -2.0707    0.0224    1.3564 C   0  0  0  0  0  4           0  0  0
   -2.0334   -1.1745   -0.7953 C   0  0  0  0  0  4           0  0  0
   -0.5423    0.0000    1.3718 C   0  0  0  0  0  4           0  0  0
   -0.5050   -1.1697   -0.7404 C   0  0  0  0  0  4           0  0  0
  1 10  1  0     0  0
  2 11  1  0     0  0
  2 12  1  0     0  0
  3 13  1  0     0  0
  4 24  2  0     0  0
  5 11  2  0     0  0
  5 16  1  0     0  0
  6 14  1  0     0  0
  6 15  2  0     0  0
  7 11  1  0     0  0
  7 14  1  0     0  0
  8 24  1  0     0  0
  8 26  1  0     0  0
  8 27  1  0     0  0
  9 25  1  0     0  0
  9 28  1  0     0  0
  9 29  1  0     0  0
 10 13  2  0     0  0
 10 18  1  0     0  0
 12 16  2  0     0  0
 13 17  1  0     0  0
 14 19  2  0     0  0
 15 20  1  0     0  0
 15 25  1  0     0  0
 17 21  2  0     0  0
 17 24  1  0     0  0
 18 22  2  0     0  0
 19 23  1  0     0  0
 20 23  2  0     0  0
 21 22  1  0     0  0
 26 28  1  0     0  0
 27 29  1  0     0  0
M  END
> <standard_type>
pIC50

> <# Confs.>
25

> <canonical_smiles>
O=C(C1=CC=CC(Cl)=C1F)N(CC2)CCN2CC3=NC(NC4=NC=CS4)=CC=C3

> <standard_relation>
=

> <Publication_ID>
nan

> <predicted_activity_value>
6.292429823902063

> <actual_activity_value>
6.356547323513812

> <Compound>
16

> <standard_units>
nM

> hash
4781207289351067986

$$$$
15
XXILIB    08252103493D 0   0.00000     0.00000

 29 32  0     1  0            999 V2000
   -6.9598   -3.4691   -2.6266 Cl  0  0  0  0  0  1           0  0  0
    3.6285   -3.7948   -1.3735 S   0  0  0  0  0  2           0  0  0
   -5.7457   -1.4799   -0.8086 F   0  0  0  0  0  1           0  0  0
   -4.1920   -1.6530    2.1281 O   0  0  0  0  0  2           0  0  0
    3.8214   -4.7877   -3.7371 N   0  0  0  0  0  3           0  0  0
    2.4104   -1.2115   -1.9022 N   0  0  0  0  0  3           0  0  0
    3.2815   -2.4971   -3.7490 N   0  0  0  0  0  3           0  0  0
   -2.6075   -1.0680    0.5484 N   0  0  2  0  0  3           0  0  0
    0.0000    0.0000    0.0000 N   0  0  2  0  0  3           0  0  0
   -5.6815   -3.7451   -1.5070 C   0  0  0  0  0  4           0  0  0
    3.5659   -3.6548   -3.1071 C   0  0  0  0  0  4           0  0  0
    4.0223   -5.4515   -1.5104 C   0  0  0  0  0  4           0  0  0
   -5.2093   -2.7060   -0.7097 C   0  0  0  0  0  4           0  0  0
    3.0003   -1.2623   -3.1270 C   0  0  0  0  0  4           0  0  0
    2.1380    0.0000   -1.3533 C   0  0  0  0  0  4           0  0  0
    4.0823   -5.8016   -2.8381 C   0  0  0  0  0  4           0  0  0
   -4.1740   -2.9409    0.1928 C   0  0  0  0  0  4           0  0  0
   -5.1160   -5.0173   -1.4018 C   0  0  0  0  0  4           0  0  0
    3.3008   -0.0930   -3.8287 C   0  0  0  0  0  4           0  0  0
    2.4233    1.1969   -1.9989 C   0  0  0  0  0  4           0  0  0
   -3.5957   -4.2053    0.3024 C   0  0  0  0  0  4           0  0  0
   -4.0736   -5.2437   -0.4979 C   0  0  0  0  0  4           0  0  0
    3.0129    1.1410   -3.2536 C   0  0  0  0  0  4           0  0  0
   -3.6615   -1.8343    1.0316 C   0  0  0  0  0  4           0  0  0
    1.4663   -0.0000   -0.0000 C   0  0  0  0  0  4           0  0  0
   -2.0707    0.0224    1.3564 C   0  0  0  0  0  4           0  0  0
   -2.0334   -1.1745   -0.7953 C   0  0  0  0  0  4           0  0  0
   -0.5423    0.0000    1.3718 C   0  0  0  0  0  4           0  0  0
   -0.5050   -1.1697   -0.7404 C   0  0  0  0  0  4           0  0  0
  1 10  1  0     0  0
  2 11  1  0     0  0
  2 12  1  0     0  0
  3 13  1  0     0  0
  4 24  2  0     0  0
  5 11  2  0     0  0
  5 16  1  0     0  0
  6 14  1  0     0  0
  6 15  2  0     0  0
  7 11  1  0     0  0
  7 14  1  0     0  0
  8 24  1  0     0  0
  8 26  1  0     0  0
  8 27  1  0     0  0
  9 25  1  0     0  0
  9 28  1  0     0  0
  9 29  1  0     0  0
 10 13  2  0     0  0
 10 18  1  0     0  0
 12 16  2  0     0  0
 13 17  1  0     0  0
 14 19  2  0     0  0
 15 20  1  0     0  0
 15 25  1  0     0  0
 17 21  2  0     0  0
 17 24  1  0     0  0
 18 22  2  0     0  0
 19 23  1  0     0  0
 20 23  2  0     0  0
 21 22  1  0     0  0
 26 28  1  0     0  0
 27 29  1  0     0  0
M  END
> <standard_type>
pIC50

> <# Confs.>
25

> <canonical_smiles>
O=C(C1=CC=CC(Cl)=C1F)N(CC2)CCN2CC3=NC(NC4=NC=CS4)=CC=C3

> <standard_relation>
=

> <Publication_ID>
nan

> <predicted_activity_value>
6.292429823902063

> <actual_activity_value>
6.356547323513812

> <Compound>
16

> <standard_units>
nM

> hash
4781207289351067986

$$$$
15
XXILIB    08252103493D 0   0.00000     0.00000

 29 32  0     1  0            999 V2000
   -3.4356   -6.8346   -0.3391 Cl  0  0  0  0  0  1           0  0  0
    4.0043   -0.7825    3.7295 S   0  0  0  0  0  2           0  0  0
   -2.6156   -4.4307    1.1725 F   0  0  0  0  0  1           0  0  0
   -4.1920   -1.6530    2.1281 O   0  0  0  0  0  2           0  0  0
    6.1687    0.3763    4.4923 N   0  0  0  0  0  3           0  0  0
    3.1777    0.8892    1.5025 N   0  0  0  0  0  3           0  0  0
    4.9255    1.6716    2.9706 N   0  0  0  0  0  3           0  0  0
   -2.6075   -1.0680    0.5484 N   0  0  2  0  0  3           0  0  0
    0.0000    0.0000    0.0000 N   0  0  2  0  0  3           0  0  0
   -4.1111   -5.2567   -0.4719 C   0  0  0  0  0  4           0  0  0
    5.1172    0.5553    3.7124 C   0  0  0  0  0  4           0  0  0
    5.0010   -1.6121    4.8414 C   0  0  0  0  0  4           0  0  0
   -3.6193   -4.2140    0.3086 C   0  0  0  0  0  4           0  0  0
    3.8245    1.9132    2.1221 C   0  0  0  0  0  4           0  0  0
    2.1380    1.1720    0.6767 C   0  0  0  0  0  4           0  0  0
    6.1032   -0.8444    5.1325 C   0  0  0  0  0  4           0  0  0
   -4.1740   -2.9409    0.1928 C   0  0  0  0  0  4           0  0  0
   -5.1583   -5.0250   -1.3657 C   0  0  0  0  0  4           0  0  0
    3.4499    3.2396    1.8982 C   0  0  0  0  0  4           0  0  0
    1.7133    2.4706    0.4234 C   0  0  0  0  0  4           0  0  0
   -5.2252   -2.6980   -0.6908 C   0  0  0  0  0  4           0  0  0
   -5.7135   -3.7462   -1.4720 C   0  0  0  0  0  4           0  0  0
    2.3838    3.5132    1.0468 C   0  0  0  0  0  4           0  0  0
   -3.6615   -1.8343    1.0316 C   0  0  0  0  0  4           0  0  0
    1.4663    0.0000   -0.0000 C   0  0  0  0  0  4           0  0  0
   -2.0707    0.0224    1.3564 C   0  0  0  0  0  4           0  0  0
   -2.0334   -1.1745   -0.7953 C   0  0  0  0  0  4           0  0  0
   -0.5423    0.0000    1.3718 C   0  0  0  0  0  4           0  0  0
   -0.5050   -1.1697   -0.7404 C   0  0  0  0  0  4           0  0  0
  1 10  1  0     0  0
  2 11  1  0     0  0
  2 12  1  0     0  0
  3 13  1  0     0  0
  4 24  2  0     0  0
  5 11  2  0     0  0
  5 16  1  0     0  0
  6 14  1  0     0  0
  6 15  2  0     0  0
  7 11  1  0     0  0
  7 14  1  0     0  0
  8 24  1  0     0  0
  8 26  1  0     0  0
  8 27  1  0     0  0
  9 25  1  0     0  0
  9 28  1  0     0  0
  9 29  1  0     0  0
 10 13  2  0     0  0
 10 18  1  0     0  0
 12 16  2  0     0  0
 13 17  1  0     0  0
 14 19  2  0     0  0
 15 20  1  0     0  0
 15 25  1  0     0  0
 17 21  2  0     0  0
 17 24  1  0     0  0
 18 22  2  0     0  0
 19 23  1  0     0  0
 20 23  2  0     0  0
 21 22  1  0     0  0
 26 28  1  0     0  0
 27 29  1  0     0  0
M  END
> <standard_type>
pIC50

> <# Confs.>
25

> <canonical_smiles>
O=C(C1=CC=CC(Cl)=C1F)N(CC2)CCN2CC3=NC(NC4=NC=CS4)=CC=C3

> <standard_relation>
=

> <Publication_ID>
nan

> <predicted_activity_value>
6.292429823902063

> <actual_activity_value>
6.356547323513812

> <Compound>
16

> <standard_units>
nM

> hash
4781207289351067986

$$$$
15
XXILIB    08252103493D 0   0.00000     0.00000

 29 32  0     1  0            999 V2000
   -3.4356   -6.8346   -0.3391 Cl  0  0  0  0  0  1           0  0  0
    5.6921   -0.5616    1.6023 S   0  0  0  0  0  2           0  0  0
   -2.6156   -4.4307    1.1725 F   0  0  0  0  0  1           0  0  0
   -4.1920   -1.6530    2.1281 O   0  0  0  0  0  2           0  0  0
    6.8183    0.4626    3.6740 N   0  0  0  0  0  3           0  0  0
    3.1777    0.8892    1.5025 N   0  0  0  0  0  3           0  0  0
    4.9255    1.6716    2.9706 N   0  0  0  0  0  3           0  0  0
   -2.6075   -1.0680    0.5484 N   0  0  2  0  0  3           0  0  0
    0.0000    0.0000    0.0000 N   0  0  2  0  0  3           0  0  0
   -4.1111   -5.2567   -0.4719 C   0  0  0  0  0  4           0  0  0
    5.7998    0.6447    2.8521 C   0  0  0  0  0  4           0  0  0
    7.0775   -1.3448    2.2231 C   0  0  0  0  0  4           0  0  0
   -3.6193   -4.2140    0.3086 C   0  0  0  0  0  4           0  0  0
    3.8245    1.9132    2.1221 C   0  0  0  0  0  4           0  0  0
    2.1380    1.1720    0.6767 C   0  0  0  0  0  4           0  0  0
    7.5383   -0.6609    3.3227 C   0  0  0  0  0  4           0  0  0
   -4.1740   -2.9409    0.1928 C   0  0  0  0  0  4           0  0  0
   -5.1583   -5.0250   -1.3657 C   0  0  0  0  0  4           0  0  0
    3.4499    3.2396    1.8982 C   0  0  0  0  0  4           0  0  0
    1.7133    2.4706    0.4234 C   0  0  0  0  0  4           0  0  0
   -5.2252   -2.6980   -0.6908 C   0  0  0  0  0  4           0  0  0
   -5.7135   -3.7462   -1.4720 C   0  0  0  0  0  4           0  0  0
    2.3838    3.5132    1.0468 C   0  0  0  0  0  4           0  0  0
   -3.6615   -1.8343    1.0316 C   0  0  0  0  0  4           0  0  0
    1.4663    0.0000   -0.0000 C   0  0  0  0  0  4           0  0  0
   -2.0707    0.0224    1.3564 C   0  0  0  0  0  4           0  0  0
   -2.0334   -1.1745   -0.7953 C   0  0  0  0  0  4           0  0  0
   -0.5423    0.0000    1.3718 C   0  0  0  0  0  4           0  0  0
   -0.5050   -1.1697   -0.7404 C   0  0  0  0  0  4           0  0  0
  1 10  1  0     0  0
  2 11  1  0     0  0
  2 12  1  0     0  0
  3 13  1  0     0  0
  4 24  2  0     0  0
  5 11  2  0     0  0
  5 16  1  0     0  0
  6 14  1  0     0  0
  6 15  2  0     0  0
  7 11  1  0     0  0
  7 14  1  0     0  0
  8 24  1  0     0  0
  8 26  1  0     0  0
  8 27  1  0     0  0
  9 25  1  0     0  0
  9 28  1  0     0  0
  9 29  1  0     0  0
 10 13  2  0     0  0
 10 18  1  0     0  0
 12 16  2  0     0  0
 13 17  1  0     0  0
 14 19  2  0     0  0
 15 20  1  0     0  0
 15 25  1  0     0  0
 17 21  2  0     0  0
 17 24  1  0     0  0
 18 22  2  0     0  0
 19 23  1  0     0  0
 20 23  2  0     0  0
 21 22  1  0     0  0
 26 28  1  0     0  0
 27 29  1  0     0  0
M  END
> <standard_type>
pIC50

> <# Confs.>
25

> <canonical_smiles>
O=C(C1=CC=CC(Cl)=C1F)N(CC2)CCN2CC3=NC(NC4=NC=CS4)=CC=C3

> <standard_relation>
=

> <Publication_ID>
nan

> <predicted_activity_value>
6.292429823902063

> <actual_activity_value>
6.356547323513812

> <Compound>
16

> <standard_units>
nM

> hash
4781207289351067986

$$$$
15
XXILIB    08252103493D 0   0.00000     0.00000

 29 32  0     1  0            999 V2000
   -6.9598   -3.4691   -2.6266 Cl  0  0  0  0  0  1           0  0  0
    4.4832    3.0282    6.2655 S   0  0  0  0  0  2           0  0  0
   -5.7457   -1.4799   -0.8086 F   0  0  0  0  0  1           0  0  0
   -4.1920   -1.6530    2.1281 O   0  0  0  0  0  2           0  0  0
    2.6822    4.0929    4.7713 N   0  0  0  0  0  3           0  0  0
    2.4104    1.0416    2.0003 N   0  0  0  0  0  3           0  0  0
    3.3547    1.9667    4.0189 N   0  0  0  0  0  3           0  0  0
   -2.6075   -1.0680    0.5484 N   0  0  2  0  0  3           0  0  0
    0.0000    0.0000    0.0000 N   0  0  2  0  0  3           0  0  0
   -5.6815   -3.7451   -1.5070 C   0  0  0  0  0  4           0  0  0
    3.4197    3.0028    4.8881 C   0  0  0  0  0  4           0  0  0
    3.8998    4.5735    6.7015 C   0  0  0  0  0  4           0  0  0
   -5.2093   -2.7060   -0.7097 C   0  0  0  0  0  4           0  0  0
    3.0292    2.0645    2.6495 C   0  0  0  0  0  4           0  0  0
    2.1380    1.1720    0.6767 C   0  0  0  0  0  4           0  0  0
    2.9494    4.9787    5.7951 C   0  0  0  0  0  4           0  0  0
   -4.1740   -2.9409    0.1928 C   0  0  0  0  0  4           0  0  0
   -5.1160   -5.0173   -1.4018 C   0  0  0  0  0  4           0  0  0
    3.4064    3.2238    1.9687 C   0  0  0  0  0  4           0  0  0
    2.4797    2.3053   -0.0511 C   0  0  0  0  0  4           0  0  0
   -3.5957   -4.2053    0.3024 C   0  0  0  0  0  4           0  0  0
   -4.0736   -5.2437   -0.4979 C   0  0  0  0  0  4           0  0  0
    3.1225    3.3411    0.6115 C   0  0  0  0  0  4           0  0  0
   -3.6615   -1.8343    1.0316 C   0  0  0  0  0  4           0  0  0
    1.4663   -0.0000    0.0000 C   0  0  0  0  0  4           0  0  0
   -2.0707    0.0224    1.3564 C   0  0  0  0  0  4           0  0  0
   -2.0334   -1.1745   -0.7953 C   0  0  0  0  0  4           0  0  0
   -0.5423    0.0000    1.3718 C   0  0  0  0  0  4           0  0  0
   -0.5050   -1.1697   -0.7404 C   0  0  0  0  0  4           0  0  0
  1 10  1  0     0  0
  2 11  1  0     0  0
  2 12  1  0     0  0
  3 13  1  0     0  0
  4 24  2  0     0  0
  5 11  2  0     0  0
  5 16  1  0     0  0
  6 14  1  0     0  0
  6 15  2  0     0  0
  7 11  1  0     0  0
  7 14  1  0     0  0
  8 24  1  0     0  0
  8 26  1  0     0  0
  8 27  1  0     0  0
  9 25  1  0     0  0
  9 28  1  0     0  0
  9 29  1  0     0  0
 10 13  2  0     0  0
 10 18  1  0     0  0
 12 16  2  0     0  0
 13 17  1  0     0  0
 14 19  2  0     0  0
 15 20  1  0     0  0
 15 25  1  0     0  0
 17 21  2  0     0  0
 17 24  1  0     0  0
 18 22  2  0     0  0
 19 23  1  0     0  0
 20 23  2  0     0  0
 21 22  1  0     0  0
 26 28  1  0     0  0
 27 29  1  0     0  0
M  END
> <standard_type>
pIC50

> <# Confs.>
25

> <canonical_smiles>
O=C(C1=CC=CC(Cl)=C1F)N(CC2)CCN2CC3=NC(NC4=NC=CS4)=CC=C3

> <standard_relation>
=

> <Publication_ID>
nan

> <predicted_activity_value>
6.292429823902063

> <actual_activity_value>
6.356547323513812

> <Compound>
16

> <standard_units>
nM

> hash
4781207289351067986

$$$$
15
XXILIB    08252103493D 0   0.00000     0.00000

 29 32  0     1  0            999 V2000
   -6.9598   -3.4691   -2.6266 Cl  0  0  0  0  0  1           0  0  0
    4.0043   -0.7825    3.7295 S   0  0  0  0  0  2           0  0  0
   -5.7457   -1.4799   -0.8086 F   0  0  0  0  0  1           0  0  0
   -4.1920   -1.6530    2.1281 O   0  0  0  0  0  2           0  0  0
    6.1687    0.3763    4.4923 N   0  0  0  0  0  3           0  0  0
    3.1777    0.8892    1.5025 N   0  0  0  0  0  3           0  0  0
    4.9255    1.6716    2.9706 N   0  0  0  0  0  3           0  0  0
   -2.6075   -1.0680    0.5484 N   0  0  2  0  0  3           0  0  0
    0.0000    0.0000    0.0000 N   0  0  2  0  0  3           0  0  0
   -5.6815   -3.7451   -1.5070 C   0  0  0  0  0  4           0  0  0
    5.1172    0.5553    3.7124 C   0  0  0  0  0  4           0  0  0
    5.0010   -1.6121    4.8414 C   0  0  0  0  0  4           0  0  0
   -5.2093   -2.7060   -0.7097 C   0  0  0  0  0  4           0  0  0
    3.8245    1.9132    2.1221 C   0  0  0  0  0  4           0  0  0
    2.1380    1.1720    0.6767 C   0  0  0  0  0  4           0  0  0
    6.1032   -0.8444    5.1325 C   0  0  0  0  0  4           0  0  0
   -4.1740   -2.9409    0.1928 C   0  0  0  0  0  4           0  0  0
   -5.1160   -5.0173   -1.4018 C   0  0  0  0  0  4           0  0  0
    3.4499    3.2396    1.8982 C   0  0  0  0  0  4           0  0  0
    1.7133    2.4706    0.4234 C   0  0  0  0  0  4           0  0  0
   -3.5957   -4.2053    0.3024 C   0  0  0  0  0  4           0  0  0
   -4.0736   -5.2437   -0.4979 C   0  0  0  0  0  4           0  0  0
    2.3838    3.5132    1.0468 C   0  0  0  0  0  4           0  0  0
   -3.6615   -1.8343    1.0316 C   0  0  0  0  0  4           0  0  0
    1.4663    0.0000   -0.0000 C   0  0  0  0  0  4           0  0  0
   -2.0707    0.0224    1.3564 C   0  0  0  0  0  4           0  0  0
   -2.0334   -1.1745   -0.7953 C   0  0  0  0  0  4           0  0  0
   -0.5423    0.0000    1.3718 C   0  0  0  0  0  4           0  0  0
   -0.5050   -1.1697   -0.7404 C   0  0  0  0  0  4           0  0  0
  1 10  1  0     0  0
  2 11  1  0     0  0
  2 12  1  0     0  0
  3 13  1  0     0  0
  4 24  2  0     0  0
  5 11  2  0     0  0
  5 16  1  0     0  0
  6 14  1  0     0  0
  6 15  2  0     0  0
  7 11  1  0     0  0
  7 14  1  0     0  0
  8 24  1  0     0  0
  8 26  1  0     0  0
  8 27  1  0     0  0
  9 25  1  0     0  0
  9 28  1  0     0  0
  9 29  1  0     0  0
 10 13  2  0     0  0
 10 18  1  0     0  0
 12 16  2  0     0  0
 13 17  1  0     0  0
 14 19  2  0     0  0
 15 20  1  0     0  0
 15 25  1  0     0  0
 17 21  2  0     0  0
 17 24  1  0     0  0
 18 22  2  0     0  0
 19 23  1  0     0  0
 20 23  2  0     0  0
 21 22  1  0     0  0
 26 28  1  0     0  0
 27 29  1  0     0  0
M  END
> <standard_type>
pIC50

> <# Confs.>
25

> <canonical_smiles>
O=C(C1=CC=CC(Cl)=C1F)N(CC2)CCN2CC3=NC(NC4=NC=CS4)=CC=C3

> <standard_relation>
=

> <Publication_ID>
nan

> <predicted_activity_value>
6.292429823902063

> <actual_activity_value>
6.356547323513812

> <Compound>
16

> <standard_units>
nM

> hash
4781207289351067986

$$$$
15
XXILIB    08252103493D 0   0.00000     0.00000

 29 32  0     1  0            999 V2000
   -6.9598   -3.4691   -2.6266 Cl  0  0  0  0  0  1           0  0  0
    5.6921   -0.5616    1.6023 S   0  0  0  0  0  2           0  0  0
   -5.7457   -1.4799   -0.8086 F   0  0  0  0  0  1           0  0  0
   -4.1920   -1.6530    2.1281 O   0  0  0  0  0  2           0  0  0
    6.8183    0.4626    3.6740 N   0  0  0  0  0  3           0  0  0
    3.1777    0.8892    1.5025 N   0  0  0  0  0  3           0  0  0
    4.9255    1.6716    2.9706 N   0  0  0  0  0  3           0  0  0
   -2.6075   -1.0680    0.5484 N   0  0  2  0  0  3           0  0  0
    0.0000    0.0000    0.0000 N   0  0  2  0  0  3           0  0  0
   -5.6815   -3.7451   -1.5070 C   0  0  0  0  0  4           0  0  0
    5.7998    0.6447    2.8521 C   0  0  0  0  0  4           0  0  0
    7.0775   -1.3448    2.2231 C   0  0  0  0  0  4           0  0  0
   -5.2093   -2.7060   -0.7097 C   0  0  0  0  0  4           0  0  0
    3.8245    1.9132    2.1221 C   0  0  0  0  0  4           0  0  0
    2.1380    1.1720    0.6767 C   0  0  0  0  0  4           0  0  0
    7.5383   -0.6609    3.3227 C   0  0  0  0  0  4           0  0  0
   -4.1740   -2.9409    0.1928 C   0  0  0  0  0  4           0  0  0
   -5.1160   -5.0173   -1.4018 C   0  0  0  0  0  4           0  0  0
    3.4499    3.2396    1.8982 C   0  0  0  0  0  4           0  0  0
    1.7133    2.4706    0.4234 C   0  0  0  0  0  4           0  0  0
   -3.5957   -4.2053    0.3024 C   0  0  0  0  0  4           0  0  0
   -4.0736   -5.2437   -0.4979 C   0  0  0  0  0  4           0  0  0
    2.3838    3.5132    1.0468 C   0  0  0  0  0  4           0  0  0
   -3.6615   -1.8343    1.0316 C   0  0  0  0  0  4           0  0  0
    1.4663    0.0000   -0.0000 C   0  0  0  0  0  4           0  0  0
   -2.0707    0.0224    1.3564 C   0  0  0  0  0  4           0  0  0
   -2.0334   -1.1745   -0.7953 C   0  0  0  0  0  4           0  0  0
   -0.5423    0.0000    1.3718 C   0  0  0  0  0  4           0  0  0
   -0.5050   -1.1697   -0.7404 C   0  0  0  0  0  4           0  0  0
  1 10  1  0     0  0
  2 11  1  0     0  0
  2 12  1  0     0  0
  3 13  1  0     0  0
  4 24  2  0     0  0
  5 11  2  0     0  0
  5 16  1  0     0  0
  6 14  1  0     0  0
  6 15  2  0     0  0
  7 11  1  0     0  0
  7 14  1  0     0  0
  8 24  1  0     0  0
  8 26  1  0     0  0
  8 27  1  0     0  0
  9 25  1  0     0  0
  9 28  1  0     0  0
  9 29  1  0     0  0
 10 13  2  0     0  0
 10 18  1  0     0  0
 12 16  2  0     0  0
 13 17  1  0     0  0
 14 19  2  0     0  0
 15 20  1  0     0  0
 15 25  1  0     0  0
 17 21  2  0     0  0
 17 24  1  0     0  0
 18 22  2  0     0  0
 19 23  1  0     0  0
 20 23  2  0     0  0
 21 22  1  0     0  0
 26 28  1  0     0  0
 27 29  1  0     0  0
M  END
> <standard_type>
pIC50

> <# Confs.>
25

> <canonical_smiles>
O=C(C1=CC=CC(Cl)=C1F)N(CC2)CCN2CC3=NC(NC4=NC=CS4)=CC=C3

> <standard_relation>
=

> <Publication_ID>
nan

> <predicted_activity_value>
6.292429823902063

> <actual_activity_value>
6.356547323513812

> <Compound>
16

> <standard_units>
nM

> hash
4781207289351067986

$$$$
15
XXILIB    08252103493D 0   0.00000     0.00000

 29 32  0     1  0            999 V2000
   -3.4356   -6.8346   -0.3391 Cl  0  0  0  0  0  1           0  0  0
    3.6790   -0.7408    3.9110 S   0  0  0  0  0  2           0  0  0
   -2.6156   -4.4307    1.1725 F   0  0  0  0  0  1           0  0  0
   -4.1920   -1.6530    2.1281 O   0  0  0  0  0  2           0  0  0
    3.9528    0.7833    5.9632 N   0  0  0  0  0  3           0  0  0
    2.4104    1.0416    2.0003 N   0  0  0  0  0  3           0  0  0
    3.3547    1.9667    4.0189 N   0  0  0  0  0  3           0  0  0
   -2.6075   -1.0680    0.5484 N   0  0  2  0  0  3           0  0  0
    0.0000    0.0000    0.0000 N   0  0  2  0  0  3           0  0  0
   -4.1111   -5.2567   -0.4719 C   0  0  0  0  0  4           0  0  0
    3.6526    0.8217    4.6770 C   0  0  0  0  0  4           0  0  0
    4.1074   -1.4730    5.3937 C   0  0  0  0  0  4           0  0  0
   -3.6193   -4.2140    0.3086 C   0  0  0  0  0  4           0  0  0
    3.0292    2.0645    2.6495 C   0  0  0  0  0  4           0  0  0
    2.1380    1.1720    0.6767 C   0  0  0  0  0  4           0  0  0
    4.2065   -0.5107    6.3700 C   0  0  0  0  0  4           0  0  0
   -4.1740   -2.9409    0.1928 C   0  0  0  0  0  4           0  0  0
   -5.1583   -5.0250   -1.3657 C   0  0  0  0  0  4           0  0  0
    3.4064    3.2238    1.9687 C   0  0  0  0  0  4           0  0  0
    2.4797    2.3053   -0.0511 C   0  0  0  0  0  4           0  0  0
   -5.2252   -2.6980   -0.6908 C   0  0  0  0  0  4           0  0  0
   -5.7135   -3.7462   -1.4720 C   0  0  0  0  0  4           0  0  0
    3.1225    3.3411    0.6115 C   0  0  0  0  0  4           0  0  0
   -3.6615   -1.8343    1.0316 C   0  0  0  0  0  4           0  0  0
    1.4663   -0.0000    0.0000 C   0  0  0  0  0  4           0  0  0
   -2.0707    0.0224    1.3564 C   0  0  0  0  0  4           0  0  0
   -2.0334   -1.1745   -0.7953 C   0  0  0  0  0  4           0  0  0
   -0.5423    0.0000    1.3718 C   0  0  0  0  0  4           0  0  0
   -0.5050   -1.1697   -0.7404 C   0  0  0  0  0  4           0  0  0
  1 10  1  0     0  0
  2 11  1  0     0  0
  2 12  1  0     0  0
  3 13  1  0     0  0
  4 24  2  0     0  0
  5 11  2  0     0  0
  5 16  1  0     0  0
  6 14  1  0     0  0
  6 15  2  0     0  0
  7 11  1  0     0  0
  7 14  1  0     0  0
  8 24  1  0     0  0
  8 26  1  0     0  0
  8 27  1  0     0  0
  9 25  1  0     0  0
  9 28  1  0     0  0
  9 29  1  0     0  0
 10 13  2  0     0  0
 10 18  1  0     0  0
 12 16  2  0     0  0
 13 17  1  0     0  0
 14 19  2  0     0  0
 15 20  1  0     0  0
 15 25  1  0     0  0
 17 21  2  0     0  0
 17 24  1  0     0  0
 18 22  2  0     0  0
 19 23  1  0     0  0
 20 23  2  0     0  0
 21 22  1  0     0  0
 26 28  1  0     0  0
 27 29  1  0     0  0
M  END
> <standard_type>
pIC50

> <# Confs.>
25

> <canonical_smiles>
O=C(C1=CC=CC(Cl)=C1F)N(CC2)CCN2CC3=NC(NC4=NC=CS4)=CC=C3

> <standard_relation>
=

> <Publication_ID>
nan

> <predicted_activity_value>
6.292429823902063

> <actual_activity_value>
6.356547323513812

> <Compound>
16

> <standard_units>
nM

> hash
4781207289351067986

$$$$
15
XXILIB    08252103493D 0   0.00000     0.00000

 29 32  0     1  0            999 V2000
   -3.4356   -6.8346   -0.3391 Cl  0  0  0  0  0  1           0  0  0
    3.9214   -3.6453   -1.1936 S   0  0  0  0  0  2           0  0  0
   -2.6156   -4.4307    1.1725 F   0  0  0  0  0  1           0  0  0
   -4.1920   -1.6530    2.1281 O   0  0  0  0  0  2           0  0  0
    6.0581   -3.7991   -2.6150 N   0  0  0  0  0  3           0  0  0
    3.1777   -0.8566   -1.5214 N   0  0  0  0  0  3           0  0  0
    4.8738   -1.7946   -2.9587 N   0  0  0  0  0  3           0  0  0
   -2.6075   -1.0680    0.5484 N   0  0  2  0  0  3           0  0  0
    0.0000    0.0000    0.0000 N   0  0  2  0  0  3           0  0  0
   -4.1111   -5.2567   -0.4719 C   0  0  0  0  0  4           0  0  0
    5.0368   -2.9995   -2.3631 C   0  0  0  0  0  4           0  0  0
    4.8811   -5.0498   -1.0371 C   0  0  0  0  0  4           0  0  0
   -3.6193   -4.2140    0.3086 C   0  0  0  0  0  4           0  0  0
    3.8041   -0.9040   -2.7281 C   0  0  0  0  0  4           0  0  0
    2.1380    0.0000   -1.3533 C   0  0  0  0  0  4           0  0  0
    5.9737   -4.9547   -1.8656 C   0  0  0  0  0  4           0  0  0
   -4.1740   -2.9409    0.1928 C   0  0  0  0  0  4           0  0  0
   -5.1583   -5.0250   -1.3657 C   0  0  0  0  0  4           0  0  0
    3.3751   -0.1075   -3.7917 C   0  0  0  0  0  4           0  0  0
    1.6734    0.8241   -2.3711 C   0  0  0  0  0  4           0  0  0
   -5.2252   -2.6980   -0.6908 C   0  0  0  0  0  4           0  0  0
   -5.7135   -3.7462   -1.4720 C   0  0  0  0  0  4           0  0  0
    2.3063    0.7636   -3.6044 C   0  0  0  0  0  4           0  0  0
   -3.6615   -1.8343    1.0316 C   0  0  0  0  0  4           0  0  0
    1.4663    0.0000   -0.0000 C   0  0  0  0  0  4           0  0  0
   -2.0707    0.0224    1.3564 C   0  0  0  0  0  4           0  0  0
   -2.0334   -1.1745   -0.7953 C   0  0  0  0  0  4           0  0  0
   -0.5423    0.0000    1.3718 C   0  0  0  0  0  4           0  0  0
   -0.5050   -1.1697   -0.7404 C   0  0  0  0  0  4           0  0  0
  1 10  1  0     0  0
  2 11  1  0     0  0
  2 12  1  0     0  0
  3 13  1  0     0  0
  4 24  2  0     0  0
  5 11  2  0     0  0
  5 16  1  0     0  0
  6 14  1  0     0  0
  6 15  2  0     0  0
  7 11  1  0     0  0
  7 14  1  0     0  0
  8 24  1  0     0  0
  8 26  1  0     0  0
  8 27  1  0     0  0
  9 25  1  0     0  0
  9 28  1  0     0  0
  9 29  1  0     0  0
 10 13  2  0     0  0
 10 18  1  0     0  0
 12 16  2  0     0  0
 13 17  1  0     0  0
 14 19  2  0     0  0
 15 20  1  0     0  0
 15 25  1  0     0  0
 17 21  2  0     0  0
 17 24  1  0     0  0
 18 22  2  0     0  0
 19 23  1  0     0  0
 20 23  2  0     0  0
 21 22  1  0     0  0
 26 28  1  0     0  0
 27 29  1  0     0  0
M  END
> <standard_type>
pIC50

> <# Confs.>
25

> <canonical_smiles>
O=C(C1=CC=CC(Cl)=C1F)N(CC2)CCN2CC3=NC(NC4=NC=CS4)=CC=C3

> <standard_relation>
=

> <Publication_ID>
nan

> <predicted_activity_value>
6.292429823902063

> <actual_activity_value>
6.356547323513812

> <Compound>
16

> <standard_units>
nM

> hash
4781207289351067986

$$$$
15
XXILIB    08252103493D 0   0.00000     0.00000

 29 32  0     1  0            999 V2000
   -6.9598   -3.4691   -2.6266 Cl  0  0  0  0  0  1           0  0  0
    4.4832   -6.9402   -0.5102 S   0  0  0  0  0  2           0  0  0
   -5.7457   -1.4799   -0.8086 F   0  0  0  0  0  1           0  0  0
   -4.1920   -1.6530    2.1281 O   0  0  0  0  0  2           0  0  0
    2.6822   -6.1785    1.1589 N   0  0  0  0  0  3           0  0  0
    2.4104   -2.2531   -0.0981 N   0  0  0  0  0  3           0  0  0
    3.3547   -4.4638   -0.3062 N   0  0  0  0  0  3           0  0  0
   -2.6075   -1.0680    0.5484 N   0  0  2  0  0  3           0  0  0
    0.0000    0.0000    0.0000 N   0  0  2  0  0  3           0  0  0
   -5.6815   -3.7451   -1.5070 C   0  0  0  0  0  4           0  0  0
    3.4197   -5.7346    0.1564 C   0  0  0  0  0  4           0  0  0
    3.8998   -8.0904    0.6100 C   0  0  0  0  0  4           0  0  0
   -5.2093   -2.7060   -0.7097 C   0  0  0  0  0  4           0  0  0
    3.0292   -3.3268    0.4632 C   0  0  0  0  0  4           0  0  0
    2.1380   -1.1720    0.6767 C   0  0  0  0  0  4           0  0  0
    2.9494   -7.5081    1.4141 C   0  0  0  0  0  4           0  0  0
   -4.1740   -2.9409    0.1928 C   0  0  0  0  0  4           0  0  0
   -5.1160   -5.0173   -1.4018 C   0  0  0  0  0  4           0  0  0
    3.4064   -3.3168    1.8076 C   0  0  0  0  0  4           0  0  0
    2.4797   -1.1084    2.0220 C   0  0  0  0  0  4           0  0  0
   -3.5957   -4.2053    0.3024 C   0  0  0  0  0  4           0  0  0
   -4.0736   -5.2437   -0.4979 C   0  0  0  0  0  4           0  0  0
    3.1225   -2.2002    2.5877 C   0  0  0  0  0  4           0  0  0
   -3.6615   -1.8343    1.0316 C   0  0  0  0  0  4           0  0  0
    1.4663   -0.0000   -0.0000 C   0  0  0  0  0  4           0  0  0
   -2.0707    0.0224    1.3564 C   0  0  0  0  0  4           0  0  0
   -2.0334   -1.1745   -0.7953 C   0  0  0  0  0  4           0  0  0
   -0.5423    0.0000    1.3718 C   0  0  0  0  0  4           0  0  0
   -0.5050   -1.1697   -0.7404 C   0  0  0  0  0  4           0  0  0
  1 10  1  0     0  0
  2 11  1  0     0  0
  2 12  1  0     0  0
  3 13  1  0     0  0
  4 24  2  0     0  0
  5 11  2  0     0  0
  5 16  1  0     0  0
  6 14  1  0     0  0
  6 15  2  0     0  0
  7 11  1  0     0  0
  7 14  1  0     0  0
  8 24  1  0     0  0
  8 26  1  0     0  0
  8 27  1  0     0  0
  9 25  1  0     0  0
  9 28  1  0     0  0
  9 29  1  0     0  0
 10 13  2  0     0  0
 10 18  1  0     0  0
 12 16  2  0     0  0
 13 17  1  0     0  0
 14 19  2  0     0  0
 15 20  1  0     0  0
 15 25  1  0     0  0
 17 21  2  0     0  0
 17 24  1  0     0  0
 18 22  2  0     0  0
 19 23  1  0     0  0
 20 23  2  0     0  0
 21 22  1  0     0  0
 26 28  1  0     0  0
 27 29  1  0     0  0
M  END
> <standard_type>
pIC50

> <# Confs.>
25

> <canonical_smiles>
O=C(C1=CC=CC(Cl)=C1F)N(CC2)CCN2CC3=NC(NC4=NC=CS4)=CC=C3

> <standard_relation>
=

> <Publication_ID>
nan

> <predicted_activity_value>
6.292429823902063

> <actual_activity_value>
6.356547323513812

> <Compound>
16

> <standard_units>
nM

> hash
4781207289351067986

$$$$
15
XXILIB    08252103493D 0   0.00000     0.00000

 29 32  0     1  0            999 V2000
   -6.9598   -3.4691   -2.6266 Cl  0  0  0  0  0  1           0  0  0
    3.9214   -3.6453   -1.1936 S   0  0  0  0  0  2           0  0  0
   -5.7457   -1.4799   -0.8086 F   0  0  0  0  0  1           0  0  0
   -4.1920   -1.6530    2.1281 O   0  0  0  0  0  2           0  0  0
    6.0581   -3.7991   -2.6150 N   0  0  0  0  0  3           0  0  0
    3.1777   -0.8566   -1.5214 N   0  0  0  0  0  3           0  0  0
    4.8738   -1.7946   -2.9587 N   0  0  0  0  0  3           0  0  0
   -2.6075   -1.0680    0.5484 N   0  0  2  0  0  3           0  0  0
    0.0000    0.0000    0.0000 N   0  0  2  0  0  3           0  0  0
   -5.6815   -3.7451   -1.5070 C   0  0  0  0  0  4           0  0  0
    5.0368   -2.9995   -2.3631 C   0  0  0  0  0  4           0  0  0
    4.8811   -5.0498   -1.0371 C   0  0  0  0  0  4           0  0  0
   -5.2093   -2.7060   -0.7097 C   0  0  0  0  0  4           0  0  0
    3.8041   -0.9040   -2.7281 C   0  0  0  0  0  4           0  0  0
    2.1380    0.0000   -1.3533 C   0  0  0  0  0  4           0  0  0
    5.9737   -4.9547   -1.8656 C   0  0  0  0  0  4           0  0  0
   -4.1740   -2.9409    0.1928 C   0  0  0  0  0  4           0  0  0
   -5.1160   -5.0173   -1.4018 C   0  0  0  0  0  4           0  0  0
    3.3751   -0.1075   -3.7917 C   0  0  0  0  0  4           0  0  0
    1.6734    0.8241   -2.3711 C   0  0  0  0  0  4           0  0  0
   -3.5957   -4.2053    0.3024 C   0  0  0  0  0  4           0  0  0
   -4.0736   -5.2437   -0.4979 C   0  0  0  0  0  4           0  0  0
    2.3063    0.7636   -3.6044 C   0  0  0  0  0  4           0  0  0
   -3.6615   -1.8343    1.0316 C   0  0  0  0  0  4           0  0  0
    1.4663    0.0000   -0.0000 C   0  0  0  0  0  4           0  0  0
   -2.0707    0.0224    1.3564 C   0  0  0  0  0  4           0  0  0
   -2.0334   -1.1745   -0.7953 C   0  0  0  0  0  4           0  0  0
   -0.5423    0.0000    1.3718 C   0  0  0  0  0  4           0  0  0
   -0.5050   -1.1697   -0.7404 C   0  0  0  0  0  4           0  0  0
  1 10  1  0     0  0
  2 11  1  0     0  0
  2 12  1  0     0  0
  3 13  1  0     0  0
  4 24  2  0     0  0
  5 11  2  0     0  0
  5 16  1  0     0  0
  6 14  1  0     0  0
  6 15  2  0     0  0
  7 11  1  0     0  0
  7 14  1  0     0  0
  8 24  1  0     0  0
  8 26  1  0     0  0
  8 27  1  0     0  0
  9 25  1  0     0  0
  9 28  1  0     0  0
  9 29  1  0     0  0
 10 13  2  0     0  0
 10 18  1  0     0  0
 12 16  2  0     0  0
 13 17  1  0     0  0
 14 19  2  0     0  0
 15 20  1  0     0  0
 15 25  1  0     0  0
 17 21  2  0     0  0
 17 24  1  0     0  0
 18 22  2  0     0  0
 19 23  1  0     0  0
 20 23  2  0     0  0
 21 22  1  0     0  0
 26 28  1  0     0  0
 27 29  1  0     0  0
M  END
> <standard_type>
pIC50

> <# Confs.>
25

> <canonical_smiles>
O=C(C1=CC=CC(Cl)=C1F)N(CC2)CCN2CC3=NC(NC4=NC=CS4)=CC=C3

> <standard_relation>
=

> <Publication_ID>
nan

> <predicted_activity_value>
6.292429823902063

> <actual_activity_value>
6.356547323513812

> <Compound>
16

> <standard_units>
nM

> hash
4781207289351067986

$$$$
15
XXILIB    08252103493D 0   0.00000     0.00000

 29 32  0     1  0            999 V2000
   -6.9598   -3.4691   -2.6266 Cl  0  0  0  0  0  1           0  0  0
    1.1748   -3.7574   -2.5569 S   0  0  0  0  0  2           0  0  0
   -5.7457   -1.4799   -0.8086 F   0  0  0  0  0  1           0  0  0
   -4.1920   -1.6530    2.1281 O   0  0  0  0  0  2           0  0  0
    2.8778   -4.7727   -4.1935 N   0  0  0  0  0  3           0  0  0
    2.4104   -1.2115   -1.9022 N   0  0  0  0  0  3           0  0  0
    3.2815   -2.4971   -3.7490 N   0  0  0  0  0  3           0  0  0
   -2.6075   -1.0680    0.5484 N   0  0  2  0  0  3           0  0  0
    0.0000    0.0000    0.0000 N   0  0  2  0  0  3           0  0  0
   -5.6815   -3.7451   -1.5070 C   0  0  0  0  0  4           0  0  0
    2.5736   -3.6396   -3.5857 C   0  0  0  0  0  4           0  0  0
    1.0012   -5.4076   -2.9629 C   0  0  0  0  0  4           0  0  0
   -5.2093   -2.7060   -0.7097 C   0  0  0  0  0  4           0  0  0
    3.0003   -1.2623   -3.1270 C   0  0  0  0  0  4           0  0  0
    2.1380    0.0000   -1.3533 C   0  0  0  0  0  4           0  0  0
    1.9938   -5.7719   -3.8409 C   0  0  0  0  0  4           0  0  0
   -4.1740   -2.9409    0.1928 C   0  0  0  0  0  4           0  0  0
   -5.1160   -5.0173   -1.4018 C   0  0  0  0  0  4           0  0  0
    3.3008   -0.0930   -3.8287 C   0  0  0  0  0  4           0  0  0
    2.4233    1.1969   -1.9989 C   0  0  0  0  0  4           0  0  0
   -3.5957   -4.2053    0.3024 C   0  0  0  0  0  4           0  0  0
   -4.0736   -5.2437   -0.4979 C   0  0  0  0  0  4           0  0  0
    3.0129    1.1410   -3.2536 C   0  0  0  0  0  4           0  0  0
   -3.6615   -1.8343    1.0316 C   0  0  0  0  0  4           0  0  0
    1.4663   -0.0000   -0.0000 C   0  0  0  0  0  4           0  0  0
   -2.0707    0.0224    1.3564 C   0  0  0  0  0  4           0  0  0
   -2.0334   -1.1745   -0.7953 C   0  0  0  0  0  4           0  0  0
   -0.5423    0.0000    1.3718 C   0  0  0  0  0  4           0  0  0
   -0.5050   -1.1697   -0.7404 C   0  0  0  0  0  4           0  0  0
  1 10  1  0     0  0
  2 11  1  0     0  0
  2 12  1  0     0  0
  3 13  1  0     0  0
  4 24  2  0     0  0
  5 11  2  0     0  0
  5 16  1  0     0  0
  6 14  1  0     0  0
  6 15  2  0     0  0
  7 11  1  0     0  0
  7 14  1  0     0  0
  8 24  1  0     0  0
  8 26  1  0     0  0
  8 27  1  0     0  0
  9 25  1  0     0  0
  9 28  1  0     0  0
  9 29  1  0     0  0
 10 13  2  0     0  0
 10 18  1  0     0  0
 12 16  2  0     0  0
 13 17  1  0     0  0
 14 19  2  0     0  0
 15 20  1  0     0  0
 15 25  1  0     0  0
 17 21  2  0     0  0
 17 24  1  0     0  0
 18 22  2  0     0  0
 19 23  1  0     0  0
 20 23  2  0     0  0
 21 22  1  0     0  0
 26 28  1  0     0  0
 27 29  1  0     0  0
M  END
> <standard_type>
pIC50

> <# Confs.>
25

> <canonical_smiles>
O=C(C1=CC=CC(Cl)=C1F)N(CC2)CCN2CC3=NC(NC4=NC=CS4)=CC=C3

> <standard_relation>
=

> <Publication_ID>
nan

> <predicted_activity_value>
6.292429823902063

> <actual_activity_value>
6.356547323513812

> <Compound>
16

> <standard_units>
nM

> hash
4781207289351067986

$$$$
15
XXILIB    08252103493D 0   0.00000     0.00000

 29 32  0     1  0            999 V2000
   -3.4356   -6.8346   -0.3391 Cl  0  0  0  0  0  1           0  0  0
    1.2528    0.3133    4.5628 S   0  0  0  0  0  2           0  0  0
   -2.6156   -4.4307    1.1725 F   0  0  0  0  0  1           0  0  0
   -4.1920   -1.6530    2.1281 O   0  0  0  0  0  2           0  0  0
    3.0186    1.1876    6.2141 N   0  0  0  0  0  3           0  0  0
    2.4104    1.0416    2.0003 N   0  0  0  0  0  3           0  0  0
    3.3547    1.9667    4.0189 N   0  0  0  0  0  3           0  0  0
   -2.6075   -1.0680    0.5484 N   0  0  2  0  0  3           0  0  0
    0.0000    0.0000    0.0000 N   0  0  2  0  0  3           0  0  0
   -4.1111   -5.2567   -0.4719 C   0  0  0  0  0  4           0  0  0
    2.6714    1.2480    4.9407 C   0  0  0  0  0  4           0  0  0
    1.1237   -0.1718    6.1956 C   0  0  0  0  0  4           0  0  0
   -3.6193   -4.2140    0.3086 C   0  0  0  0  0  4           0  0  0
    3.0292    2.0645    2.6495 C   0  0  0  0  0  4           0  0  0
    2.1380    1.1720    0.6767 C   0  0  0  0  0  4           0  0  0
    2.1449    0.3898    6.9242 C   0  0  0  0  0  4           0  0  0
   -4.1740   -2.9409    0.1928 C   0  0  0  0  0  4           0  0  0
   -5.1583   -5.0250   -1.3657 C   0  0  0  0  0  4           0  0  0
    3.4064    3.2238    1.9687 C   0  0  0  0  0  4           0  0  0
    2.4797    2.3053   -0.0511 C   0  0  0  0  0  4           0  0  0
   -5.2252   -2.6980   -0.6908 C   0  0  0  0  0  4           0  0  0
   -5.7135   -3.7462   -1.4720 C   0  0  0  0  0  4           0  0  0
    3.1225    3.3411    0.6115 C   0  0  0  0  0  4           0  0  0
   -3.6615   -1.8343    1.0316 C   0  0  0  0  0  4           0  0  0
    1.4663   -0.0000    0.0000 C   0  0  0  0  0  4           0  0  0
   -2.0707    0.0224    1.3564 C   0  0  0  0  0  4           0  0  0
   -2.0334   -1.1745   -0.7953 C   0  0  0  0  0  4           0  0  0
   -0.5423    0.0000    1.3718 C   0  0  0  0  0  4           0  0  0
   -0.5050   -1.1697   -0.7404 C   0  0  0  0  0  4           0  0  0
  1 10  1  0     0  0
  2 11  1  0     0  0
  2 12  1  0     0  0
  3 13  1  0     0  0
  4 24  2  0     0  0
  5 11  2  0     0  0
  5 16  1  0     0  0
  6 14  1  0     0  0
  6 15  2  0     0  0
  7 11  1  0     0  0
  7 14  1  0     0  0
  8 24  1  0     0  0
  8 26  1  0     0  0
  8 27  1  0     0  0
  9 25  1  0     0  0
  9 28  1  0     0  0
  9 29  1  0     0  0
 10 13  2  0     0  0
 10 18  1  0     0  0
 12 16  2  0     0  0
 13 17  1  0     0  0
 14 19  2  0     0  0
 15 20  1  0     0  0
 15 25  1  0     0  0
 17 21  2  0     0  0
 17 24  1  0     0  0
 18 22  2  0     0  0
 19 23  1  0     0  0
 20 23  2  0     0  0
 21 22  1  0     0  0
 26 28  1  0     0  0
 27 29  1  0     0  0
M  END
> <standard_type>
pIC50

> <# Confs.>
25

> <canonical_smiles>
O=C(C1=CC=CC(Cl)=C1F)N(CC2)CCN2CC3=NC(NC4=NC=CS4)=CC=C3

> <standard_relation>
=

> <Publication_ID>
nan

> <predicted_activity_value>
6.292429823902063

> <actual_activity_value>
6.356547323513812

> <Compound>
16

> <standard_units>
nM

> hash
4781207289351067986

$$$$
15
XXILIB    08252103493D 0   0.00000     0.00000

 29 32  0     1  0            999 V2000
   -3.4356   -6.8346   -0.3391 Cl  0  0  0  0  0  1           0  0  0
    4.3820   -6.9857   -0.4858 S   0  0  0  0  0  2           0  0  0
   -2.6156   -4.4307    1.1725 F   0  0  0  0  0  1           0  0  0
   -4.1920   -1.6530    2.1281 O   0  0  0  0  0  2           0  0  0
    5.5355   -4.8947    0.4664 N   0  0  0  0  0  3           0  0  0
    2.4104   -2.2531   -0.0981 N   0  0  0  0  0  3           0  0  0
    3.3547   -4.4638   -0.3062 N   0  0  0  0  0  3           0  0  0
   -2.6075   -1.0680    0.5484 N   0  0  2  0  0  3           0  0  0
    0.0000    0.0000    0.0000 N   0  0  2  0  0  3           0  0  0
   -4.1111   -5.2567   -0.4719 C   0  0  0  0  0  4           0  0  0
    4.4009   -5.2932   -0.0810 C   0  0  0  0  0  4           0  0  0
    5.9712   -7.1590    0.1164 C   0  0  0  0  0  4           0  0  0
   -3.6193   -4.2140    0.3086 C   0  0  0  0  0  4           0  0  0
    3.0292   -3.3268    0.4632 C   0  0  0  0  0  4           0  0  0
    2.1380   -1.1720    0.6767 C   0  0  0  0  0  4           0  0  0
    6.4213   -5.9465    0.5815 C   0  0  0  0  0  4           0  0  0
   -4.1740   -2.9409    0.1928 C   0  0  0  0  0  4           0  0  0
   -5.1583   -5.0250   -1.3657 C   0  0  0  0  0  4           0  0  0
    3.4064   -3.3168    1.8076 C   0  0  0  0  0  4           0  0  0
    2.4797   -1.1084    2.0220 C   0  0  0  0  0  4           0  0  0
   -5.2252   -2.6980   -0.6908 C   0  0  0  0  0  4           0  0  0
   -5.7135   -3.7462   -1.4720 C   0  0  0  0  0  4           0  0  0
    3.1225   -2.2002    2.5877 C   0  0  0  0  0  4           0  0  0
   -3.6615   -1.8343    1.0316 C   0  0  0  0  0  4           0  0  0
    1.4663   -0.0000   -0.0000 C   0  0  0  0  0  4           0  0  0
   -2.0707    0.0224    1.3564 C   0  0  0  0  0  4           0  0  0
   -2.0334   -1.1745   -0.7953 C   0  0  0  0  0  4           0  0  0
   -0.5423    0.0000    1.3718 C   0  0  0  0  0  4           0  0  0
   -0.5050   -1.1697   -0.7404 C   0  0  0  0  0  4           0  0  0
  1 10  1  0     0  0
  2 11  1  0     0  0
  2 12  1  0     0  0
  3 13  1  0     0  0
  4 24  2  0     0  0
  5 11  2  0     0  0
  5 16  1  0     0  0
  6 14  1  0     0  0
  6 15  2  0     0  0
  7 11  1  0     0  0
  7 14  1  0     0  0
  8 24  1  0     0  0
  8 26  1  0     0  0
  8 27  1  0     0  0
  9 25  1  0     0  0
  9 28  1  0     0  0
  9 29  1  0     0  0
 10 13  2  0     0  0
 10 18  1  0     0  0
 12 16  2  0     0  0
 13 17  1  0     0  0
 14 19  2  0     0  0
 15 20  1  0     0  0
 15 25  1  0     0  0
 17 21  2  0     0  0
 17 24  1  0     0  0
 18 22  2  0     0  0
 19 23  1  0     0  0
 20 23  2  0     0  0
 21 22  1  0     0  0
 26 28  1  0     0  0
 27 29  1  0     0  0
M  END
> <standard_type>
pIC50

> <# Confs.>
25

> <canonical_smiles>
O=C(C1=CC=CC(Cl)=C1F)N(CC2)CCN2CC3=NC(NC4=NC=CS4)=CC=C3

> <standard_relation>
=

> <Publication_ID>
nan

> <predicted_activity_value>
6.292429823902063

> <actual_activity_value>
6.356547323513812

> <Compound>
16

> <standard_units>
nM

> hash
4781207289351067986

$$$$
15
XXILIB    08252103493D 0   0.00000     0.00000

 29 32  0     1  0            999 V2000
   -6.9598   -3.4691   -2.6266 Cl  0  0  0  0  0  1           0  0  0
    3.6790   -0.7408    3.9110 S   0  0  0  0  0  2           0  0  0
   -5.7457   -1.4799   -0.8086 F   0  0  0  0  0  1           0  0  0
   -4.1920   -1.6530    2.1281 O   0  0  0  0  0  2           0  0  0
    3.9528    0.7833    5.9632 N   0  0  0  0  0  3           0  0  0
    2.4104    1.0416    2.0003 N   0  0  0  0  0  3           0  0  0
    3.3547    1.9667    4.0189 N   0  0  0  0  0  3           0  0  0
   -2.6075   -1.0680    0.5484 N   0  0  2  0  0  3           0  0  0
    0.0000    0.0000    0.0000 N   0  0  2  0  0  3           0  0  0
   -5.6815   -3.7451   -1.5070 C   0  0  0  0  0  4           0  0  0
    3.6526    0.8217    4.6770 C   0  0  0  0  0  4           0  0  0
    4.1074   -1.4730    5.3937 C   0  0  0  0  0  4           0  0  0
   -5.2093   -2.7060   -0.7097 C   0  0  0  0  0  4           0  0  0
    3.0292    2.0645    2.6495 C   0  0  0  0  0  4           0  0  0
    2.1380    1.1720    0.6767 C   0  0  0  0  0  4           0  0  0
    4.2065   -0.5107    6.3700 C   0  0  0  0  0  4           0  0  0
   -4.1740   -2.9409    0.1928 C   0  0  0  0  0  4           0  0  0
   -5.1160   -5.0173   -1.4018 C   0  0  0  0  0  4           0  0  0
    3.4064    3.2238    1.9687 C   0  0  0  0  0  4           0  0  0
    2.4797    2.3053   -0.0511 C   0  0  0  0  0  4           0  0  0
   -3.5957   -4.2053    0.3024 C   0  0  0  0  0  4           0  0  0
   -4.0736   -5.2437   -0.4979 C   0  0  0  0  0  4           0  0  0
    3.1225    3.3411    0.6115 C   0  0  0  0  0  4           0  0  0
   -3.6615   -1.8343    1.0316 C   0  0  0  0  0  4           0  0  0
    1.4663   -0.0000    0.0000 C   0  0  0  0  0  4           0  0  0
   -2.0707    0.0224    1.3564 C   0  0  0  0  0  4           0  0  0
   -2.0334   -1.1745   -0.7953 C   0  0  0  0  0  4           0  0  0
   -0.5423    0.0000    1.3718 C   0  0  0  0  0  4           0  0  0
   -0.5050   -1.1697   -0.7404 C   0  0  0  0  0  4           0  0  0
  1 10  1  0     0  0
  2 11  1  0     0  0
  2 12  1  0     0  0
  3 13  1  0     0  0
  4 24  2  0     0  0
  5 11  2  0     0  0
  5 16  1  0     0  0
  6 14  1  0     0  0
  6 15  2  0     0  0
  7 11  1  0     0  0
  7 14  1  0     0  0
  8 24  1  0     0  0
  8 26  1  0     0  0
  8 27  1  0     0  0
  9 25  1  0     0  0
  9 28  1  0     0  0
  9 29  1  0     0  0
 10 13  2  0     0  0
 10 18  1  0     0  0
 12 16  2  0     0  0
 13 17  1  0     0  0
 14 19  2  0     0  0
 15 20  1  0     0  0
 15 25  1  0     0  0
 17 21  2  0     0  0
 17 24  1  0     0  0
 18 22  2  0     0  0
 19 23  1  0     0  0
 20 23  2  0     0  0
 21 22  1  0     0  0
 26 28  1  0     0  0
 27 29  1  0     0  0
M  END
> <standard_type>
pIC50

> <# Confs.>
25

> <canonical_smiles>
O=C(C1=CC=CC(Cl)=C1F)N(CC2)CCN2CC3=NC(NC4=NC=CS4)=CC=C3

> <standard_relation>
=

> <Publication_ID>
nan

> <predicted_activity_value>
6.292429823902063

> <actual_activity_value>
6.356547323513812

> <Compound>
16

> <standard_units>
nM

> hash
4781207289351067986

$$$$
18
XXILIB    08252103493D 0   0.00000     0.00000

 33 36  0     1  0            999 V2000
   -2.7637   -4.4069    1.2029 F   0  0  0  0  0  1           0  0  0
   -2.7183   -6.6163    0.6158 F   0  0  0  0  0  1           0  0  0
   -4.6483   -7.4638    0.0836 F   0  0  0  0  0  1           0  0  0
   -3.1938   -7.0252   -1.4652 F   0  0  0  0  0  1           0  0  0
   -4.1851   -1.5539    2.2172 O   0  0  0  0  0  2           0  0  0
    4.2258   -2.6110   -7.0843 N   0  0  0  0  0  3           0  0  0
    3.5366   -1.9454   -6.1462 N   0  0  0  0  0  3           0  0  0
    2.2924   -1.2115   -1.9545 N   0  0  0  0  0  3           0  0  0
    3.0860   -2.5039   -3.8309 N   0  0  0  0  0  3           0  0  0
   -2.6181   -1.0068    0.6058 N   0  0  2  0  0  3           0  0  0
    0.0000   -0.0000    0.0000 N   0  0  2  0  0  3           0  0  0
   -3.7611   -4.1247    0.3492 C   0  0  0  0  0  4           0  0  0
    3.6209   -2.7290   -5.0600 C   0  0  0  0  0  4           0  0  0
    2.8383   -1.2614   -3.1992 C   0  0  0  0  0  4           0  0  0
    4.7515   -3.7950   -6.6554 C   0  0  0  0  0  4           0  0  0
    2.0539    0.0000   -1.3903 C   0  0  0  0  0  4           0  0  0
   -4.2786   -5.1652   -0.4339 C   0  0  0  0  0  4           0  0  0
   -4.2631   -2.8193    0.2580 C   0  0  0  0  0  4           0  0  0
    4.3766   -3.8996   -5.3359 C   0  0  0  0  0  4           0  0  0
    3.1477   -0.0928   -3.8978 C   0  0  0  0  0  4           0  0  0
    2.3502    1.1965   -2.0314 C   0  0  0  0  0  4           0  0  0
   -5.3169   -4.8849   -1.3252 C   0  0  0  0  0  4           0  0  0
   -5.3050   -2.5605   -0.6406 C   0  0  0  0  0  4           0  0  0
    2.9022    1.1412   -3.3034 C   0  0  0  0  0  4           0  0  0
   -5.8263   -3.5903   -1.4273 C   0  0  0  0  0  4           0  0  0
   -3.7199   -6.5453   -0.3039 C   0  0  2  0  0  4           0  0  0
   -3.6827   -1.7440    1.1092 C   0  0  0  0  0  4           0  0  0
    1.4661    0.0000    0.0000 C   0  0  0  0  0  4           0  0  0
   -2.0330    0.0640    1.4064 C   0  0  0  0  0  4           0  0  0
   -2.0770   -1.1237   -0.7511 C   0  0  0  0  0  4           0  0  0
   -0.5065    0.0000    1.3840 C   0  0  0  0  0  4           0  0  0
   -0.5469   -1.1576   -0.7321 C   0  0  0  0  0  4           0  0  0
    5.5460   -4.6807   -7.5324 C   0  0  0  0  0  4           0  0  0
  1 12  1  0     0  0
  2 26  1  0     0  0
  3 26  1  0     0  0
  4 26  1  0     0  0
  5 27  2  0     0  0
  6  7  1  0     0  0
  6 15  1  0     0  0
  7 13  2  0     0  0
  8 14  1  0     0  0
  8 16  2  0     0  0
  9 13  1  0     0  0
  9 14  1  0     0  0
 10 27  1  0     0  0
 10 29  1  0     0  0
 10 30  1  0     0  0
 11 28  1  0     0  0
 11 31  1  0     0  0
 11 32  1  0     0  0
 12 17  1  0     0  0
 12 18  2  0     0  0
 13 19  1  0     0  0
 14 20  2  0     0  0
 15 19  2  0     0  0
 15 33  1  0     0  0
 16 21  1  0     0  0
 16 28  1  0     0  0
 17 22  2  0     0  0
 17 26  1  0     0  0
 18 23  1  0     0  0
 18 27  1  0     0  0
 20 24  1  0     0  0
 21 24  2  0     0  0
 22 25  1  0     0  0
 23 25  2  0     0  0
 29 31  1  0     0  0
 30 32  1  0     0  0
M  END
> <standard_type>
pIC50

> <# Confs.>
25

> <canonical_smiles>
FC(F)(F)C1=CC=CC(C(N2CCN(CC3=NC(NC4=NNC(C)=C4)=CC=C3)CC2)=O)=C1F

> <standard_relation>
=

> <Publication_ID>
nan

> <predicted_activity_value>
6.292429823902063

> <actual_activity_value>
6.229147988357855

> <Compound>
19

> <standard_units>
nM

> hash
11576136930478842395

$$$$
18
XXILIB    08252103493D 0   0.00000     0.00000

 33 36  0     1  0            999 V2000
   -5.7796   -1.2633   -0.7118 F   0  0  0  0  0  1           0  0  0
   -7.3163   -1.8168   -2.3119 F   0  0  0  0  0  1           0  0  0
   -6.6869   -3.3786   -3.6870 F   0  0  0  0  0  1           0  0  0
   -8.1427   -3.8196   -2.1401 F   0  0  0  0  0  1           0  0  0
   -4.1851   -1.5539    2.2172 O   0  0  0  0  0  2           0  0  0
    4.2258   -2.6110   -7.0843 N   0  0  0  0  0  3           0  0  0
    3.5366   -1.9454   -6.1462 N   0  0  0  0  0  3           0  0  0
    2.2924   -1.2115   -1.9545 N   0  0  0  0  0  3           0  0  0
    3.0860   -2.5039   -3.8309 N   0  0  0  0  0  3           0  0  0
   -2.6181   -1.0068    0.6058 N   0  0  2  0  0  3           0  0  0
    0.0000   -0.0000    0.0000 N   0  0  2  0  0  3           0  0  0
   -5.3068   -2.5172   -0.6275 C   0  0  0  0  0  4           0  0  0
    3.6209   -2.7290   -5.0600 C   0  0  0  0  0  4           0  0  0
    2.8383   -1.2614   -3.1992 C   0  0  0  0  0  4           0  0  0
    4.7515   -3.7950   -6.6554 C   0  0  0  0  0  4           0  0  0
    2.0539    0.0000   -1.3903 C   0  0  0  0  0  4           0  0  0
   -5.8811   -3.4994   -1.4455 C   0  0  0  0  0  4           0  0  0
   -4.2631   -2.8193    0.2580 C   0  0  0  0  0  4           0  0  0
    4.3766   -3.8996   -5.3359 C   0  0  0  0  0  4           0  0  0
    3.1477   -0.0928   -3.8978 C   0  0  0  0  0  4           0  0  0
    2.3502    1.1965   -2.0314 C   0  0  0  0  0  4           0  0  0
   -5.3976   -4.8076   -1.3679 C   0  0  0  0  0  4           0  0  0
   -3.7925   -4.1364    0.3188 C   0  0  0  0  0  4           0  0  0
    2.9022    1.1412   -3.3034 C   0  0  0  0  0  4           0  0  0
   -4.3598   -5.1232   -0.4908 C   0  0  0  0  0  4           0  0  0
   -6.9889   -3.1366   -2.3808 C   0  0  2  0  0  4           0  0  0
   -3.6827   -1.7440    1.1092 C   0  0  0  0  0  4           0  0  0
    1.4661    0.0000    0.0000 C   0  0  0  0  0  4           0  0  0
   -2.0330    0.0640    1.4064 C   0  0  0  0  0  4           0  0  0
   -2.0770   -1.1237   -0.7511 C   0  0  0  0  0  4           0  0  0
   -0.5065    0.0000    1.3840 C   0  0  0  0  0  4           0  0  0
   -0.5469   -1.1576   -0.7321 C   0  0  0  0  0  4           0  0  0
    5.5460   -4.6807   -7.5324 C   0  0  0  0  0  4           0  0  0
  1 12  1  0     0  0
  2 26  1  0     0  0
  3 26  1  0     0  0
  4 26  1  0     0  0
  5 27  2  0     0  0
  6  7  1  0     0  0
  6 15  1  0     0  0
  7 13  2  0     0  0
  8 14  1  0     0  0
  8 16  2  0     0  0
  9 13  1  0     0  0
  9 14  1  0     0  0
 10 27  1  0     0  0
 10 29  1  0     0  0
 10 30  1  0     0  0
 11 28  1  0     0  0
 11 31  1  0     0  0
 11 32  1  0     0  0
 12 17  1  0     0  0
 12 18  2  0     0  0
 13 19  1  0     0  0
 14 20  2  0     0  0
 15 19  2  0     0  0
 15 33  1  0     0  0
 16 21  1  0     0  0
 16 28  1  0     0  0
 17 22  2  0     0  0
 17 26  1  0     0  0
 18 23  1  0     0  0
 18 27  1  0     0  0
 20 24  1  0     0  0
 21 24  2  0     0  0
 22 25  1  0     0  0
 23 25  2  0     0  0
 29 31  1  0     0  0
 30 32  1  0     0  0
M  END
> <standard_type>
pIC50

> <# Confs.>
25

> <canonical_smiles>
FC(F)(F)C1=CC=CC(C(N2CCN(CC3=NC(NC4=NNC(C)=C4)=CC=C3)CC2)=O)=C1F

> <standard_relation>
=

> <Publication_ID>
nan

> <predicted_activity_value>
6.292429823902063

> <actual_activity_value>
6.229147988357855

> <Compound>
19

> <standard_units>
nM

> hash
11576136930478842395

$$$$
18
XXILIB    08252103493D 0   0.00000     0.00000

 33 36  0     1  0            999 V2000
   -2.7637   -4.4069    1.2029 F   0  0  0  0  0  1           0  0  0
   -2.7183   -6.6163    0.6158 F   0  0  0  0  0  1           0  0  0
   -4.6483   -7.4638    0.0836 F   0  0  0  0  0  1           0  0  0
   -3.1938   -7.0252   -1.4652 F   0  0  0  0  0  1           0  0  0
   -4.1851   -1.5539    2.2172 O   0  0  0  0  0  2           0  0  0
    7.0936   -0.8705   -5.4730 N   0  0  0  0  0  3           0  0  0
    5.9732   -0.5439   -4.8127 N   0  0  0  0  0  3           0  0  0
    3.0815   -0.8567   -1.6210 N   0  0  0  0  0  3           0  0  0
    4.7167   -1.7702   -3.1415 N   0  0  0  0  0  3           0  0  0
   -2.6181   -1.0068    0.6058 N   0  0  2  0  0  3           0  0  0
    0.0000   -0.0000    0.0000 N   0  0  2  0  0  3           0  0  0
   -3.7611   -4.1247    0.3492 C   0  0  0  0  0  4           0  0  0
    5.7407   -1.6009   -4.0191 C   0  0  0  0  0  4           0  0  0
    3.6550   -0.8791   -2.8540 C   0  0  0  0  0  4           0  0  0
    7.5973   -2.0956   -5.1452 C   0  0  0  0  0  4           0  0  0
    2.0539    0.0000   -1.3903 C   0  0  0  0  0  4           0  0  0
   -4.2786   -5.1652   -0.4339 C   0  0  0  0  0  4           0  0  0
   -4.2631   -2.8193    0.2580 C   0  0  0  0  0  4           0  0  0
    6.7377   -2.5970   -4.1953 C   0  0  0  0  0  4           0  0  0
    3.1997   -0.0436   -3.8758 C   0  0  0  0  0  4           0  0  0
    1.5646    0.8626   -2.3635 C   0  0  0  0  0  4           0  0  0
   -5.3169   -4.8849   -1.3252 C   0  0  0  0  0  4           0  0  0
   -5.3050   -2.5605   -0.6406 C   0  0  0  0  0  4           0  0  0
    2.1492    0.8327   -3.6218 C   0  0  0  0  0  4           0  0  0
   -5.8263   -3.5903   -1.4273 C   0  0  0  0  0  4           0  0  0
   -3.7199   -6.5453   -0.3039 C   0  0  2  0  0  4           0  0  0
   -3.6827   -1.7440    1.1092 C   0  0  0  0  0  4           0  0  0
    1.4661    0.0000    0.0000 C   0  0  0  0  0  4           0  0  0
   -2.0330    0.0640    1.4064 C   0  0  0  0  0  4           0  0  0
   -2.0770   -1.1237   -0.7511 C   0  0  0  0  0  4           0  0  0
   -0.5065    0.0000    1.3840 C   0  0  0  0  0  4           0  0  0
   -0.5469   -1.1576   -0.7321 C   0  0  0  0  0  4           0  0  0
    8.8259   -2.6442   -5.7573 C   0  0  0  0  0  4           0  0  0
  1 12  1  0     0  0
  2 26  1  0     0  0
  3 26  1  0     0  0
  4 26  1  0     0  0
  5 27  2  0     0  0
  6  7  1  0     0  0
  6 15  1  0     0  0
  7 13  2  0     0  0
  8 14  1  0     0  0
  8 16  2  0     0  0
  9 13  1  0     0  0
  9 14  1  0     0  0
 10 27  1  0     0  0
 10 29  1  0     0  0
 10 30  1  0     0  0
 11 28  1  0     0  0
 11 31  1  0     0  0
 11 32  1  0     0  0
 12 17  1  0     0  0
 12 18  2  0     0  0
 13 19  1  0     0  0
 14 20  2  0     0  0
 15 19  2  0     0  0
 15 33  1  0     0  0
 16 21  1  0     0  0
 16 28  1  0     0  0
 17 22  2  0     0  0
 17 26  1  0     0  0
 18 23  1  0     0  0
 18 27  1  0     0  0
 20 24  1  0     0  0
 21 24  2  0     0  0
 22 25  1  0     0  0
 23 25  2  0     0  0
 29 31  1  0     0  0
 30 32  1  0     0  0
M  END
> <standard_type>
pIC50

> <# Confs.>
25

> <canonical_smiles>
FC(F)(F)C1=CC=CC(C(N2CCN(CC3=NC(NC4=NNC(C)=C4)=CC=C3)CC2)=O)=C1F

> <standard_relation>
=

> <Publication_ID>
nan

> <predicted_activity_value>
6.292429823902063

> <actual_activity_value>
6.229147988357855

> <Compound>
19

> <standard_units>
nM

> hash
11576136930478842395

$$$$
18
XXILIB    08252103493D 0   0.00000     0.00000

 33 36  0     1  0            999 V2000
   -5.7796   -1.2633   -0.7118 F   0  0  0  0  0  1           0  0  0
   -7.3163   -1.8168   -2.3119 F   0  0  0  0  0  1           0  0  0
   -6.6869   -3.3786   -3.6870 F   0  0  0  0  0  1           0  0  0
   -8.1427   -3.8196   -2.1401 F   0  0  0  0  0  1           0  0  0
   -4.1851   -1.5539    2.2172 O   0  0  0  0  0  2           0  0  0
    7.0936   -0.8705   -5.4730 N   0  0  0  0  0  3           0  0  0
    5.9732   -0.5439   -4.8127 N   0  0  0  0  0  3           0  0  0
    3.0815   -0.8567   -1.6210 N   0  0  0  0  0  3           0  0  0
    4.7167   -1.7702   -3.1415 N   0  0  0  0  0  3           0  0  0
   -2.6181   -1.0068    0.6058 N   0  0  2  0  0  3           0  0  0
    0.0000   -0.0000    0.0000 N   0  0  2  0  0  3           0  0  0
   -5.3068   -2.5172   -0.6275 C   0  0  0  0  0  4           0  0  0
    5.7407   -1.6009   -4.0191 C   0  0  0  0  0  4           0  0  0
    3.6550   -0.8791   -2.8540 C   0  0  0  0  0  4           0  0  0
    7.5973   -2.0956   -5.1452 C   0  0  0  0  0  4           0  0  0
    2.0539    0.0000   -1.3903 C   0  0  0  0  0  4           0  0  0
   -5.8811   -3.4994   -1.4455 C   0  0  0  0  0  4           0  0  0
   -4.2631   -2.8193    0.2580 C   0  0  0  0  0  4           0  0  0
    6.7377   -2.5970   -4.1953 C   0  0  0  0  0  4           0  0  0
    3.1997   -0.0436   -3.8758 C   0  0  0  0  0  4           0  0  0
    1.5646    0.8626   -2.3635 C   0  0  0  0  0  4           0  0  0
   -5.3976   -4.8076   -1.3679 C   0  0  0  0  0  4           0  0  0
   -3.7925   -4.1364    0.3188 C   0  0  0  0  0  4           0  0  0
    2.1492    0.8327   -3.6218 C   0  0  0  0  0  4           0  0  0
   -4.3598   -5.1232   -0.4908 C   0  0  0  0  0  4           0  0  0
   -6.9889   -3.1366   -2.3808 C   0  0  2  0  0  4           0  0  0
   -3.6827   -1.7440    1.1092 C   0  0  0  0  0  4           0  0  0
    1.4661    0.0000    0.0000 C   0  0  0  0  0  4           0  0  0
   -2.0330    0.0640    1.4064 C   0  0  0  0  0  4           0  0  0
   -2.0770   -1.1237   -0.7511 C   0  0  0  0  0  4           0  0  0
   -0.5065    0.0000    1.3840 C   0  0  0  0  0  4           0  0  0
   -0.5469   -1.1576   -0.7321 C   0  0  0  0  0  4           0  0  0
    8.8259   -2.6442   -5.7573 C   0  0  0  0  0  4           0  0  0
  1 12  1  0     0  0
  2 26  1  0     0  0
  3 26  1  0     0  0
  4 26  1  0     0  0
  5 27  2  0     0  0
  6  7  1  0     0  0
  6 15  1  0     0  0
  7 13  2  0     0  0
  8 14  1  0     0  0
  8 16  2  0     0  0
  9 13  1  0     0  0
  9 14  1  0     0  0
 10 27  1  0     0  0
 10 29  1  0     0  0
 10 30  1  0     0  0
 11 28  1  0     0  0
 11 31  1  0     0  0
 11 32  1  0     0  0
 12 17  1  0     0  0
 12 18  2  0     0  0
 13 19  1  0     0  0
 14 20  2  0     0  0
 15 19  2  0     0  0
 15 33  1  0     0  0
 16 21  1  0     0  0
 16 28  1  0     0  0
 17 22  2  0     0  0
 17 26  1  0     0  0
 18 23  1  0     0  0
 18 27  1  0     0  0
 20 24  1  0     0  0
 21 24  2  0     0  0
 22 25  1  0     0  0
 23 25  2  0     0  0
 29 31  1  0     0  0
 30 32  1  0     0  0
M  END
> <standard_type>
pIC50

> <# Confs.>
25

> <canonical_smiles>
FC(F)(F)C1=CC=CC(C(N2CCN(CC3=NC(NC4=NNC(C)=C4)=CC=C3)CC2)=O)=C1F

> <standard_relation>
=

> <Publication_ID>
nan

> <predicted_activity_value>
6.292429823902063

> <actual_activity_value>
6.229147988357855

> <Compound>
19

> <standard_units>
nM

> hash
11576136930478842395

$$$$
18
XXILIB    08252103493D 0   0.00000     0.00000

 33 36  0     1  0            999 V2000
   -2.7637   -4.4069    1.2029 F   0  0  0  0  0  1           0  0  0
   -2.7183   -6.6163    0.6158 F   0  0  0  0  0  1           0  0  0
   -4.6483   -7.4638    0.0836 F   0  0  0  0  0  1           0  0  0
   -3.1938   -7.0252   -1.4652 F   0  0  0  0  0  1           0  0  0
   -4.1851   -1.5539    2.2172 O   0  0  0  0  0  2           0  0  0
    4.6248    4.6835    5.7190 N   0  0  0  0  0  3           0  0  0
    4.4321    4.0222    4.5686 N   0  0  0  0  0  3           0  0  0
    2.2924    1.0869    2.0265 N   0  0  0  0  0  3           0  0  0
    3.0853    2.0659    4.0840 N   0  0  0  0  0  3           0  0  0
   -2.6181   -1.0068    0.6058 N   0  0  2  0  0  3           0  0  0
    0.0000   -0.0000    0.0000 N   0  0  2  0  0  3           0  0  0
   -3.7611   -4.1247    0.3492 C   0  0  0  0  0  4           0  0  0
    3.5943    3.0273    4.8990 C   0  0  0  0  0  4           0  0  0
    2.8048    2.1522    2.6991 C   0  0  0  0  0  4           0  0  0
    3.9510    4.1594    6.7835 C   0  0  0  0  0  4           0  0  0
    2.0539    1.2040    0.6952 C   0  0  0  0  0  4           0  0  0
   -4.2786   -5.1652   -0.4339 C   0  0  0  0  0  4           0  0  0
   -4.2631   -2.8193    0.2580 C   0  0  0  0  0  4           0  0  0
    3.2657    3.0779    6.2799 C   0  0  0  0  0  4           0  0  0
    3.0903    3.3501    2.0414 C   0  0  0  0  0  4           0  0  0
    2.3072    2.3733   -0.0114 C   0  0  0  0  0  4           0  0  0
   -5.3169   -4.8849   -1.3252 C   0  0  0  0  0  4           0  0  0
   -5.3050   -2.5605   -0.6406 C   0  0  0  0  0  4           0  0  0
    2.8350    3.4560    0.6776 C   0  0  0  0  0  4           0  0  0
   -5.8263   -3.5903   -1.4273 C   0  0  0  0  0  4           0  0  0
   -3.7199   -6.5453   -0.3039 C   0  0  2  0  0  4           0  0  0
   -3.6827   -1.7440    1.1092 C   0  0  0  0  0  4           0  0  0
    1.4661    0.0000   -0.0000 C   0  0  0  0  0  4           0  0  0
   -2.0330    0.0640    1.4064 C   0  0  0  0  0  4           0  0  0
   -2.0770   -1.1237   -0.7511 C   0  0  0  0  0  4           0  0  0
   -0.5065    0.0000    1.3840 C   0  0  0  0  0  4           0  0  0
   -0.5469   -1.1576   -0.7321 C   0  0  0  0  0  4           0  0  0
    4.0264    4.7393    8.1410 C   0  0  0  0  0  4           0  0  0
  1 12  1  0     0  0
  2 26  1  0     0  0
  3 26  1  0     0  0
  4 26  1  0     0  0
  5 27  2  0     0  0
  6  7  1  0     0  0
  6 15  1  0     0  0
  7 13  2  0     0  0
  8 14  1  0     0  0
  8 16  2  0     0  0
  9 13  1  0     0  0
  9 14  1  0     0  0
 10 27  1  0     0  0
 10 29  1  0     0  0
 10 30  1  0     0  0
 11 28  1  0     0  0
 11 31  1  0     0  0
 11 32  1  0     0  0
 12 17  1  0     0  0
 12 18  2  0     0  0
 13 19  1  0     0  0
 14 20  2  0     0  0
 15 19  2  0     0  0
 15 33  1  0     0  0
 16 21  1  0     0  0
 16 28  1  0     0  0
 17 22  2  0     0  0
 17 26  1  0     0  0
 18 23  1  0     0  0
 18 27  1  0     0  0
 20 24  1  0     0  0
 21 24  2  0     0  0
 22 25  1  0     0  0
 23 25  2  0     0  0
 29 31  1  0     0  0
 30 32  1  0     0  0
M  END
> <standard_type>
pIC50

> <# Confs.>
25

> <canonical_smiles>
FC(F)(F)C1=CC=CC(C(N2CCN(CC3=NC(NC4=NNC(C)=C4)=CC=C3)CC2)=O)=C1F

> <standard_relation>
=

> <Publication_ID>
nan

> <predicted_activity_value>
6.292429823902063

> <actual_activity_value>
6.229147988357855

> <Compound>
19

> <standard_units>
nM

> hash
11576136930478842395

$$$$
18
XXILIB    08252103493D 0   0.00000     0.00000

 33 36  0     1  0            999 V2000
   -2.7637   -4.4069    1.2029 F   0  0  0  0  0  1           0  0  0
   -2.7183   -6.6163    0.6158 F   0  0  0  0  0  1           0  0  0
   -4.6483   -7.4638    0.0836 F   0  0  0  0  0  1           0  0  0
   -3.1938   -7.0252   -1.4652 F   0  0  0  0  0  1           0  0  0
   -4.1851   -1.5539    2.2172 O   0  0  0  0  0  2           0  0  0
    5.0841    3.9494    5.8046 N   0  0  0  0  0  3           0  0  0
    4.3765    3.6138    4.7161 N   0  0  0  0  0  3           0  0  0
    3.0815    0.9755    1.5524 N   0  0  0  0  0  3           0  0  0
    4.7162    1.8354    3.1044 N   0  0  0  0  0  3           0  0  0
   -2.6181   -1.0068    0.6058 N   0  0  2  0  0  3           0  0  0
    0.0000   -0.0000    0.0000 N   0  0  2  0  0  3           0  0  0
   -3.7611   -4.1247    0.3492 C   0  0  0  0  0  4           0  0  0
    5.0302    2.5547    4.2141 C   0  0  0  0  0  4           0  0  0
    3.6313    2.0279    2.2156 C   0  0  0  0  0  4           0  0  0
    6.1713    3.1561    6.0297 C   0  0  0  0  0  4           0  0  0
    2.0539    1.2040    0.6952 C   0  0  0  0  0  4           0  0  0
   -4.2786   -5.1652   -0.4339 C   0  0  0  0  0  4           0  0  0
   -4.2631   -2.8193    0.2580 C   0  0  0  0  0  4           0  0  0
    6.1621    2.2330    5.0096 C   0  0  0  0  0  4           0  0  0
    3.1592    3.3275    2.0224 C   0  0  0  0  0  4           0  0  0
    1.5342    2.4728    0.4698 C   0  0  0  0  0  4           0  0  0
   -5.3169   -4.8849   -1.3252 C   0  0  0  0  0  4           0  0  0
   -5.3050   -2.5605   -0.6406 C   0  0  0  0  0  4           0  0  0
    2.1016    3.5445    1.1445 C   0  0  0  0  0  4           0  0  0
   -5.8263   -3.5903   -1.4273 C   0  0  0  0  0  4           0  0  0
   -3.7199   -6.5453   -0.3039 C   0  0  2  0  0  4           0  0  0
   -3.6827   -1.7440    1.1092 C   0  0  0  0  0  4           0  0  0
    1.4661   -0.0000    0.0000 C   0  0  0  0  0  4           0  0  0
   -2.0330    0.0640    1.4064 C   0  0  0  0  0  4           0  0  0
   -2.0770   -1.1237   -0.7511 C   0  0  0  0  0  4           0  0  0
   -0.5065    0.0000    1.3840 C   0  0  0  0  0  4           0  0  0
   -0.5469   -1.1576   -0.7321 C   0  0  0  0  0  4           0  0  0
    7.0823    3.3557    7.1765 C   0  0  0  0  0  4           0  0  0
  1 12  1  0     0  0
  2 26  1  0     0  0
  3 26  1  0     0  0
  4 26  1  0     0  0
  5 27  2  0     0  0
  6  7  1  0     0  0
  6 15  1  0     0  0
  7 13  2  0     0  0
  8 14  1  0     0  0
  8 16  2  0     0  0
  9 13  1  0     0  0
  9 14  1  0     0  0
 10 27  1  0     0  0
 10 29  1  0     0  0
 10 30  1  0     0  0
 11 28  1  0     0  0
 11 31  1  0     0  0
 11 32  1  0     0  0
 12 17  1  0     0  0
 12 18  2  0     0  0
 13 19  1  0     0  0
 14 20  2  0     0  0
 15 19  2  0     0  0
 15 33  1  0     0  0
 16 21  1  0     0  0
 16 28  1  0     0  0
 17 22  2  0     0  0
 17 26  1  0     0  0
 18 23  1  0     0  0
 18 27  1  0     0  0
 20 24  1  0     0  0
 21 24  2  0     0  0
 22 25  1  0     0  0
 23 25  2  0     0  0
 29 31  1  0     0  0
 30 32  1  0     0  0
M  END
> <standard_type>
pIC50

> <# Confs.>
25

> <canonical_smiles>
FC(F)(F)C1=CC=CC(C(N2CCN(CC3=NC(NC4=NNC(C)=C4)=CC=C3)CC2)=O)=C1F

> <standard_relation>
=

> <Publication_ID>
nan

> <predicted_activity_value>
6.292429823902063

> <actual_activity_value>
6.229147988357855

> <Compound>
19

> <standard_units>
nM

> hash
11576136930478842395

$$$$
18
XXILIB    08252103493D 0   0.00000     0.00000

 33 36  0     1  0            999 V2000
   -5.7796   -1.2633   -0.7118 F   0  0  0  0  0  1           0  0  0
   -7.3163   -1.8168   -2.3119 F   0  0  0  0  0  1           0  0  0
   -6.6869   -3.3786   -3.6870 F   0  0  0  0  0  1           0  0  0
   -8.1427   -3.8196   -2.1401 F   0  0  0  0  0  1           0  0  0
   -4.1851   -1.5539    2.2172 O   0  0  0  0  0  2           0  0  0
    4.6248    4.6835    5.7190 N   0  0  0  0  0  3           0  0  0
    4.4321    4.0222    4.5686 N   0  0  0  0  0  3           0  0  0
    2.2924    1.0869    2.0265 N   0  0  0  0  0  3           0  0  0
    3.0853    2.0659    4.0840 N   0  0  0  0  0  3           0  0  0
   -2.6181   -1.0068    0.6058 N   0  0  2  0  0  3           0  0  0
    0.0000   -0.0000    0.0000 N   0  0  2  0  0  3           0  0  0
   -5.3068   -2.5172   -0.6275 C   0  0  0  0  0  4           0  0  0
    3.5943    3.0273    4.8990 C   0  0  0  0  0  4           0  0  0
    2.8048    2.1522    2.6991 C   0  0  0  0  0  4           0  0  0
    3.9510    4.1594    6.7835 C   0  0  0  0  0  4           0  0  0
    2.0539    1.2040    0.6952 C   0  0  0  0  0  4           0  0  0
   -5.8811   -3.4994   -1.4455 C   0  0  0  0  0  4           0  0  0
   -4.2631   -2.8193    0.2580 C   0  0  0  0  0  4           0  0  0
    3.2657    3.0779    6.2799 C   0  0  0  0  0  4           0  0  0
    3.0903    3.3501    2.0414 C   0  0  0  0  0  4           0  0  0
    2.3072    2.3733   -0.0114 C   0  0  0  0  0  4           0  0  0
   -5.3976   -4.8076   -1.3679 C   0  0  0  0  0  4           0  0  0
   -3.7925   -4.1364    0.3188 C   0  0  0  0  0  4           0  0  0
    2.8350    3.4560    0.6776 C   0  0  0  0  0  4           0  0  0
   -4.3598   -5.1232   -0.4908 C   0  0  0  0  0  4           0  0  0
   -6.9889   -3.1366   -2.3808 C   0  0  2  0  0  4           0  0  0
   -3.6827   -1.7440    1.1092 C   0  0  0  0  0  4           0  0  0
    1.4661    0.0000   -0.0000 C   0  0  0  0  0  4           0  0  0
   -2.0330    0.0640    1.4064 C   0  0  0  0  0  4           0  0  0
   -2.0770   -1.1237   -0.7511 C   0  0  0  0  0  4           0  0  0
   -0.5065    0.0000    1.3840 C   0  0  0  0  0  4           0  0  0
   -0.5469   -1.1576   -0.7321 C   0  0  0  0  0  4           0  0  0
    4.0264    4.7393    8.1410 C   0  0  0  0  0  4           0  0  0
  1 12  1  0     0  0
  2 26  1  0     0  0
  3 26  1  0     0  0
  4 26  1  0     0  0
  5 27  2  0     0  0
  6  7  1  0     0  0
  6 15  1  0     0  0
  7 13  2  0     0  0
  8 14  1  0     0  0
  8 16  2  0     0  0
  9 13  1  0     0  0
  9 14  1  0     0  0
 10 27  1  0     0  0
 10 29  1  0     0  0
 10 30  1  0     0  0
 11 28  1  0     0  0
 11 31  1  0     0  0
 11 32  1  0     0  0
 12 17  1  0     0  0
 12 18  2  0     0  0
 13 19  1  0     0  0
 14 20  2  0     0  0
 15 19  2  0     0  0
 15 33  1  0     0  0
 16 21  1  0     0  0
 16 28  1  0     0  0
 17 22  2  0     0  0
 17 26  1  0     0  0
 18 23  1  0     0  0
 18 27  1  0     0  0
 20 24  1  0     0  0
 21 24  2  0     0  0
 22 25  1  0     0  0
 23 25  2  0     0  0
 29 31  1  0     0  0
 30 32  1  0     0  0
M  END
> <standard_type>
pIC50

> <# Confs.>
25

> <canonical_smiles>
FC(F)(F)C1=CC=CC(C(N2CCN(CC3=NC(NC4=NNC(C)=C4)=CC=C3)CC2)=O)=C1F

> <standard_relation>
=

> <Publication_ID>
nan

> <predicted_activity_value>
6.292429823902063

> <actual_activity_value>
6.229147988357855

> <Compound>
19

> <standard_units>
nM

> hash
11576136930478842395

$$$$
18
XXILIB    08252103493D 0   0.00000     0.00000

 33 36  0     1  0            999 V2000
   -5.7796   -1.2633   -0.7118 F   0  0  0  0  0  1           0  0  0
   -7.3163   -1.8168   -2.3119 F   0  0  0  0  0  1           0  0  0
   -6.6869   -3.3786   -3.6870 F   0  0  0  0  0  1           0  0  0
   -8.1427   -3.8196   -2.1401 F   0  0  0  0  0  1           0  0  0
   -4.1851   -1.5539    2.2172 O   0  0  0  0  0  2           0  0  0
    5.0841    3.9494    5.8046 N   0  0  0  0  0  3           0  0  0
    4.3765    3.6138    4.7161 N   0  0  0  0  0  3           0  0  0
    3.0815    0.9755    1.5524 N   0  0  0  0  0  3           0  0  0
    4.7162    1.8354    3.1044 N   0  0  0  0  0  3           0  0  0
   -2.6181   -1.0068    0.6058 N   0  0  2  0  0  3           0  0  0
    0.0000   -0.0000    0.0000 N   0  0  2  0  0  3           0  0  0
   -5.3068   -2.5172   -0.6275 C   0  0  0  0  0  4           0  0  0
    5.0302    2.5547    4.2141 C   0  0  0  0  0  4           0  0  0
    3.6313    2.0279    2.2156 C   0  0  0  0  0  4           0  0  0
    6.1713    3.1561    6.0297 C   0  0  0  0  0  4           0  0  0
    2.0539    1.2040    0.6952 C   0  0  0  0  0  4           0  0  0
   -5.8811   -3.4994   -1.4455 C   0  0  0  0  0  4           0  0  0
   -4.2631   -2.8193    0.2580 C   0  0  0  0  0  4           0  0  0
    6.1621    2.2330    5.0096 C   0  0  0  0  0  4           0  0  0
    3.1592    3.3275    2.0224 C   0  0  0  0  0  4           0  0  0
    1.5342    2.4728    0.4698 C   0  0  0  0  0  4           0  0  0
   -5.3976   -4.8076   -1.3679 C   0  0  0  0  0  4           0  0  0
   -3.7925   -4.1364    0.3188 C   0  0  0  0  0  4           0  0  0
    2.1016    3.5445    1.1445 C   0  0  0  0  0  4           0  0  0
   -4.3598   -5.1232   -0.4908 C   0  0  0  0  0  4           0  0  0
   -6.9889   -3.1366   -2.3808 C   0  0  2  0  0  4           0  0  0
   -3.6827   -1.7440    1.1092 C   0  0  0  0  0  4           0  0  0
    1.4661   -0.0000    0.0000 C   0  0  0  0  0  4           0  0  0
   -2.0330    0.0640    1.4064 C   0  0  0  0  0  4           0  0  0
   -2.0770   -1.1237   -0.7511 C   0  0  0  0  0  4           0  0  0
   -0.5065    0.0000    1.3840 C   0  0  0  0  0  4           0  0  0
   -0.5469   -1.1576   -0.7321 C   0  0  0  0  0  4           0  0  0
    7.0823    3.3557    7.1765 C   0  0  0  0  0  4           0  0  0
  1 12  1  0     0  0
  2 26  1  0     0  0
  3 26  1  0     0  0
  4 26  1  0     0  0
  5 27  2  0     0  0
  6  7  1  0     0  0
  6 15  1  0     0  0
  7 13  2  0     0  0
  8 14  1  0     0  0
  8 16  2  0     0  0
  9 13  1  0     0  0
  9 14  1  0     0  0
 10 27  1  0     0  0
 10 29  1  0     0  0
 10 30  1  0     0  0
 11 28  1  0     0  0
 11 31  1  0     0  0
 11 32  1  0     0  0
 12 17  1  0     0  0
 12 18  2  0     0  0
 13 19  1  0     0  0
 14 20  2  0     0  0
 15 19  2  0     0  0
 15 33  1  0     0  0
 16 21  1  0     0  0
 16 28  1  0     0  0
 17 22  2  0     0  0
 17 26  1  0     0  0
 18 23  1  0     0  0
 18 27  1  0     0  0
 20 24  1  0     0  0
 21 24  2  0     0  0
 22 25  1  0     0  0
 23 25  2  0     0  0
 29 31  1  0     0  0
 30 32  1  0     0  0
M  END
> <standard_type>
pIC50

> <# Confs.>
25

> <canonical_smiles>
FC(F)(F)C1=CC=CC(C(N2CCN(CC3=NC(NC4=NNC(C)=C4)=CC=C3)CC2)=O)=C1F

> <standard_relation>
=

> <Publication_ID>
nan

> <predicted_activity_value>
6.292429823902063

> <actual_activity_value>
6.229147988357855

> <Compound>
19

> <standard_units>
nM

> hash
11576136930478842395

$$$$
18
XXILIB    08252103493D 0   0.00000     0.00000

 33 36  0     1  0            999 V2000
   -6.3724   -1.7182    0.2671 F   0  0  0  0  0  1           0  0  0
   -8.2226   -2.5100   -0.8181 F   0  0  0  0  0  1           0  0  0
   -7.8148   -3.5761   -2.6684 F   0  0  0  0  0  1           0  0  0
   -8.3911   -4.6758   -0.8892 F   0  0  0  0  0  1           0  0  0
   -4.1851   -1.5539    2.2172 O   0  0  0  0  0  2           0  0  0
    4.2258   -2.6110   -7.0843 N   0  0  0  0  0  3           0  0  0
    3.5366   -1.9454   -6.1462 N   0  0  0  0  0  3           0  0  0
    2.2924   -1.2115   -1.9545 N   0  0  0  0  0  3           0  0  0
    3.0860   -2.5039   -3.8309 N   0  0  0  0  0  3           0  0  0
   -2.6181   -1.0068    0.6058 N   0  0  2  0  0  3           0  0  0
    0.0000   -0.0000    0.0000 N   0  0  2  0  0  3           0  0  0
   -5.6093   -2.7506   -0.1264 C   0  0  0  0  0  4           0  0  0
    3.6209   -2.7290   -5.0600 C   0  0  0  0  0  4           0  0  0
    2.8383   -1.2614   -3.1992 C   0  0  0  0  0  4           0  0  0
    4.7515   -3.7950   -6.6554 C   0  0  0  0  0  4           0  0  0
    2.0539    0.0000   -1.3903 C   0  0  0  0  0  4           0  0  0
   -6.1944   -3.7414   -0.9262 C   0  0  0  0  0  4           0  0  0
   -4.2631   -2.8193    0.2580 C   0  0  0  0  0  4           0  0  0
    4.3766   -3.8996   -5.3359 C   0  0  0  0  0  4           0  0  0
    3.1477   -0.0928   -3.8978 C   0  0  0  0  0  4           0  0  0
    2.3502    1.1965   -2.0314 C   0  0  0  0  0  4           0  0  0
   -5.4109   -4.8201   -1.3430 C   0  0  0  0  0  4           0  0  0
   -3.4955   -3.9082   -0.1720 C   0  0  0  0  0  4           0  0  0
    2.9022    1.1412   -3.3034 C   0  0  0  0  0  4           0  0  0
   -4.0699   -4.9022   -0.9677 C   0  0  0  0  0  4           0  0  0
   -7.6319   -3.6297   -1.3194 C   0  0  2  0  0  4           0  0  0
   -3.6827   -1.7440    1.1092 C   0  0  0  0  0  4           0  0  0
    1.4661    0.0000    0.0000 C   0  0  0  0  0  4           0  0  0
   -2.0330    0.0640    1.4064 C   0  0  0  0  0  4           0  0  0
   -2.0770   -1.1237   -0.7511 C   0  0  0  0  0  4           0  0  0
   -0.5065    0.0000    1.3840 C   0  0  0  0  0  4           0  0  0
   -0.5469   -1.1576   -0.7321 C   0  0  0  0  0  4           0  0  0
    5.5460   -4.6807   -7.5324 C   0  0  0  0  0  4           0  0  0
  1 12  1  0     0  0
  2 26  1  0     0  0
  3 26  1  0     0  0
  4 26  1  0     0  0
  5 27  2  0     0  0
  6  7  1  0     0  0
  6 15  1  0     0  0
  7 13  2  0     0  0
  8 14  1  0     0  0
  8 16  2  0     0  0
  9 13  1  0     0  0
  9 14  1  0     0  0
 10 27  1  0     0  0
 10 29  1  0     0  0
 10 30  1  0     0  0
 11 28  1  0     0  0
 11 31  1  0     0  0
 11 32  1  0     0  0
 12 17  1  0     0  0
 12 18  2  0     0  0
 13 19  1  0     0  0
 14 20  2  0     0  0
 15 19  2  0     0  0
 15 33  1  0     0  0
 16 21  1  0     0  0
 16 28  1  0     0  0
 17 22  2  0     0  0
 17 26  1  0     0  0
 18 23  1  0     0  0
 18 27  1  0     0  0
 20 24  1  0     0  0
 21 24  2  0     0  0
 22 25  1  0     0  0
 23 25  2  0     0  0
 29 31  1  0     0  0
 30 32  1  0     0  0
M  END
> <standard_type>
pIC50

> <# Confs.>
25

> <canonical_smiles>
FC(F)(F)C1=CC=CC(C(N2CCN(CC3=NC(NC4=NNC(C)=C4)=CC=C3)CC2)=O)=C1F

> <standard_relation>
=

> <Publication_ID>
nan

> <predicted_activity_value>
6.292429823902063

> <actual_activity_value>
6.229147988357855

> <Compound>
19

> <standard_units>
nM

> hash
11576136930478842395

$$$$
18
XXILIB    08252103493D 0   0.00000     0.00000

 33 36  0     1  0            999 V2000
   -3.7606   -4.4407    1.9253 F   0  0  0  0  0  1           0  0  0
   -4.2407   -6.6665    1.7173 F   0  0  0  0  0  1           0  0  0
   -6.0493   -7.1141    0.5971 F   0  0  0  0  0  1           0  0  0
   -4.1052   -7.4519   -0.3047 F   0  0  0  0  0  1           0  0  0
   -4.1851   -1.5539    2.2172 O   0  0  0  0  0  2           0  0  0
    4.2258   -2.6110   -7.0843 N   0  0  0  0  0  3           0  0  0
    3.5366   -1.9454   -6.1462 N   0  0  0  0  0  3           0  0  0
    2.2924   -1.2115   -1.9545 N   0  0  0  0  0  3           0  0  0
    3.0860   -2.5039   -3.8309 N   0  0  0  0  0  3           0  0  0
   -2.6181   -1.0068    0.6058 N   0  0  2  0  0  3           0  0  0
    0.0000   -0.0000    0.0000 N   0  0  2  0  0  3           0  0  0
   -4.2706   -4.1428    0.7194 C   0  0  0  0  0  4           0  0  0
    3.6209   -2.7290   -5.0600 C   0  0  0  0  0  4           0  0  0
    2.8383   -1.2614   -3.1992 C   0  0  0  0  0  4           0  0  0
    4.7515   -3.7950   -6.6554 C   0  0  0  0  0  4           0  0  0
    2.0539    0.0000   -1.3903 C   0  0  0  0  0  4           0  0  0
   -4.8066   -5.1840   -0.0501 C   0  0  0  0  0  4           0  0  0
   -4.2631   -2.8193    0.2580 C   0  0  0  0  0  4           0  0  0
    4.3766   -3.8996   -5.3359 C   0  0  0  0  0  4           0  0  0
    3.1477   -0.0928   -3.8978 C   0  0  0  0  0  4           0  0  0
    2.3502    1.1965   -2.0314 C   0  0  0  0  0  4           0  0  0
   -5.3411   -4.8871   -1.3060 C   0  0  0  0  0  4           0  0  0
   -4.8053   -2.5434   -1.0029 C   0  0  0  0  0  4           0  0  0
    2.9022    1.1412   -3.3034 C   0  0  0  0  0  4           0  0  0
   -5.3399   -3.5747   -1.7787 C   0  0  0  0  0  4           0  0  0
   -4.8009   -6.5817    0.4792 C   0  0  2  0  0  4           0  0  0
   -3.6827   -1.7440    1.1092 C   0  0  0  0  0  4           0  0  0
    1.4661    0.0000    0.0000 C   0  0  0  0  0  4           0  0  0
   -2.0330    0.0640    1.4064 C   0  0  0  0  0  4           0  0  0
   -2.0770   -1.1237   -0.7511 C   0  0  0  0  0  4           0  0  0
   -0.5065    0.0000    1.3840 C   0  0  0  0  0  4           0  0  0
   -0.5469   -1.1576   -0.7321 C   0  0  0  0  0  4           0  0  0
    5.5460   -4.6807   -7.5324 C   0  0  0  0  0  4           0  0  0
  1 12  1  0     0  0
  2 26  1  0     0  0
  3 26  1  0     0  0
  4 26  1  0     0  0
  5 27  2  0     0  0
  6  7  1  0     0  0
  6 15  1  0     0  0
  7 13  2  0     0  0
  8 14  1  0     0  0
  8 16  2  0     0  0
  9 13  1  0     0  0
  9 14  1  0     0  0
 10 27  1  0     0  0
 10 29  1  0     0  0
 10 30  1  0     0  0
 11 28  1  0     0  0
 11 31  1  0     0  0
 11 32  1  0     0  0
 12 17  1  0     0  0
 12 18  2  0     0  0
 13 19  1  0     0  0
 14 20  2  0     0  0
 15 19  2  0     0  0
 15 33  1  0     0  0
 16 21  1  0     0  0
 16 28  1  0     0  0
 17 22  2  0     0  0
 17 26  1  0     0  0
 18 23  1  0     0  0
 18 27  1  0     0  0
 20 24  1  0     0  0
 21 24  2  0     0  0
 22 25  1  0     0  0
 23 25  2  0     0  0
 29 31  1  0     0  0
 30 32  1  0     0  0
M  END
> <standard_type>
pIC50

> <# Confs.>
25

> <canonical_smiles>
FC(F)(F)C1=CC=CC(C(N2CCN(CC3=NC(NC4=NNC(C)=C4)=CC=C3)CC2)=O)=C1F

> <standard_relation>
=

> <Publication_ID>
nan

> <predicted_activity_value>
6.292429823902063

> <actual_activity_value>
6.229147988357855

> <Compound>
19

> <standard_units>
nM

> hash
11576136930478842395

$$$$
18
XXILIB    08252103493D 0   0.00000     0.00000

 33 36  0     1  0            999 V2000
   -0.2944   -5.8293    1.4682 F   0  0  0  0  0  1           0  0  0
    0.0388   -7.9230    0.6116 F   0  0  0  0  0  1           0  0  0
   -1.7647   -9.1124    0.3687 F   0  0  0  0  0  1           0  0  0
   -0.7939   -8.2498   -1.3692 F   0  0  0  0  0  1           0  0  0
   -1.9731   -3.4350    3.0923 O   0  0  0  0  0  2           0  0  0
    4.2258   -2.6110   -7.0843 N   0  0  0  0  0  3           0  0  0
    3.5366   -1.9454   -6.1462 N   0  0  0  0  0  3           0  0  0
    2.2924   -1.2115   -1.9545 N   0  0  0  0  0  3           0  0  0
    3.0860   -2.5039   -3.8309 N   0  0  0  0  0  3           0  0  0
   -0.9288   -2.4378    1.2850 N   0  0  2  0  0  3           0  0  0
    0.0000   -0.0000    0.0000 N   0  0  2  0  0  3           0  0  0
   -1.4891   -5.6948    0.8703 C   0  0  0  0  0  4           0  0  0
    3.6209   -2.7290   -5.0600 C   0  0  0  0  0  4           0  0  0
    2.8383   -1.2614   -3.1992 C   0  0  0  0  0  4           0  0  0
    4.7515   -3.7950   -6.6554 C   0  0  0  0  0  4           0  0  0
    2.0539    0.0000   -1.3903 C   0  0  0  0  0  4           0  0  0
   -1.9589   -6.7528    0.0806 C   0  0  0  0  0  4           0  0  0
   -2.2367   -4.5220    1.0442 C   0  0  0  0  0  4           0  0  0
    4.3766   -3.8996   -5.3359 C   0  0  0  0  0  4           0  0  0
    3.1477   -0.0928   -3.8978 C   0  0  0  0  0  4           0  0  0
    2.3502    1.1965   -2.0314 C   0  0  0  0  0  4           0  0  0
   -3.2007   -6.6257   -0.5461 C   0  0  0  0  0  4           0  0  0
   -3.4795   -4.4159    0.4084 C   0  0  0  0  0  4           0  0  0
    2.9022    1.1412   -3.3034 C   0  0  0  0  0  4           0  0  0
   -3.9556   -5.4641   -0.3827 C   0  0  0  0  0  4           0  0  0
   -1.1345   -7.9895   -0.0761 C   0  0  2  0  0  4           0  0  0
   -1.6984   -3.4224    1.8921 C   0  0  0  0  0  4           0  0  0
    1.4661    0.0000    0.0000 C   0  0  0  0  0  4           0  0  0
   -0.3989   -1.3390    2.0890 C   0  0  0  0  0  4           0  0  0
   -0.4610   -2.4773   -0.1046 C   0  0  0  0  0  4           0  0  0
   -0.5482    0.0000    1.3665 C   0  0  0  0  0  4           0  0  0
   -0.5896   -1.1060   -0.7739 C   0  0  0  0  0  4           0  0  0
    5.5460   -4.6807   -7.5324 C   0  0  0  0  0  4           0  0  0
  1 12  1  0     0  0
  2 26  1  0     0  0
  3 26  1  0     0  0
  4 26  1  0     0  0
  5 27  2  0     0  0
  6  7  1  0     0  0
  6 15  1  0     0  0
  7 13  2  0     0  0
  8 14  1  0     0  0
  8 16  2  0     0  0
  9 13  1  0     0  0
  9 14  1  0     0  0
 10 27  1  0     0  0
 10 29  1  0     0  0
 10 30  1  0     0  0
 11 28  1  0     0  0
 11 31  1  0     0  0
 11 32  1  0     0  0
 12 17  1  0     0  0
 12 18  2  0     0  0
 13 19  1  0     0  0
 14 20  2  0     0  0
 15 19  2  0     0  0
 15 33  1  0     0  0
 16 21  1  0     0  0
 16 28  1  0     0  0
 17 22  2  0     0  0
 17 26  1  0     0  0
 18 23  1  0     0  0
 18 27  1  0     0  0
 20 24  1  0     0  0
 21 24  2  0     0  0
 22 25  1  0     0  0
 23 25  2  0     0  0
 29 31  1  0     0  0
 30 32  1  0     0  0
M  END
> <standard_type>
pIC50

> <# Confs.>
25

> <canonical_smiles>
FC(F)(F)C1=CC=CC(C(N2CCN(CC3=NC(NC4=NNC(C)=C4)=CC=C3)CC2)=O)=C1F

> <standard_relation>
=

> <Publication_ID>
nan

> <predicted_activity_value>
6.292429823902063

> <actual_activity_value>
6.229147988357855

> <Compound>
19

> <standard_units>
nM

> hash
11576136930478842395

$$$$
18
XXILIB    08252103493D 0   0.00000     0.00000

 33 36  0     1  0            999 V2000
   -6.3724   -1.7182    0.2671 F   0  0  0  0  0  1           0  0  0
   -8.2226   -2.5100   -0.8181 F   0  0  0  0  0  1           0  0  0
   -7.8148   -3.5761   -2.6684 F   0  0  0  0  0  1           0  0  0
   -8.3911   -4.6758   -0.8892 F   0  0  0  0  0  1           0  0  0
   -4.1851   -1.5539    2.2172 O   0  0  0  0  0  2           0  0  0
    7.0936   -0.8705   -5.4730 N   0  0  0  0  0  3           0  0  0
    5.9732   -0.5439   -4.8127 N   0  0  0  0  0  3           0  0  0
    3.0815   -0.8567   -1.6210 N   0  0  0  0  0  3           0  0  0
    4.7167   -1.7702   -3.1415 N   0  0  0  0  0  3           0  0  0
   -2.6181   -1.0068    0.6058 N   0  0  2  0  0  3           0  0  0
    0.0000   -0.0000    0.0000 N   0  0  2  0  0  3           0  0  0
   -5.6093   -2.7506   -0.1264 C   0  0  0  0  0  4           0  0  0
    5.7407   -1.6009   -4.0191 C   0  0  0  0  0  4           0  0  0
    3.6550   -0.8791   -2.8540 C   0  0  0  0  0  4           0  0  0
    7.5973   -2.0956   -5.1452 C   0  0  0  0  0  4           0  0  0
    2.0539    0.0000   -1.3903 C   0  0  0  0  0  4           0  0  0
   -6.1944   -3.7414   -0.9262 C   0  0  0  0  0  4           0  0  0
   -4.2631   -2.8193    0.2580 C   0  0  0  0  0  4           0  0  0
    6.7377   -2.5970   -4.1953 C   0  0  0  0  0  4           0  0  0
    3.1997   -0.0436   -3.8758 C   0  0  0  0  0  4           0  0  0
    1.5646    0.8626   -2.3635 C   0  0  0  0  0  4           0  0  0
   -5.4109   -4.8201   -1.3430 C   0  0  0  0  0  4           0  0  0
   -3.4955   -3.9082   -0.1720 C   0  0  0  0  0  4           0  0  0
    2.1492    0.8327   -3.6218 C   0  0  0  0  0  4           0  0  0
   -4.0699   -4.9022   -0.9677 C   0  0  0  0  0  4           0  0  0
   -7.6319   -3.6297   -1.3194 C   0  0  2  0  0  4           0  0  0
   -3.6827   -1.7440    1.1092 C   0  0  0  0  0  4           0  0  0
    1.4661    0.0000    0.0000 C   0  0  0  0  0  4           0  0  0
   -2.0330    0.0640    1.4064 C   0  0  0  0  0  4           0  0  0
   -2.0770   -1.1237   -0.7511 C   0  0  0  0  0  4           0  0  0
   -0.5065    0.0000    1.3840 C   0  0  0  0  0  4           0  0  0
   -0.5469   -1.1576   -0.7321 C   0  0  0  0  0  4           0  0  0
    8.8259   -2.6442   -5.7573 C   0  0  0  0  0  4           0  0  0
  1 12  1  0     0  0
  2 26  1  0     0  0
  3 26  1  0     0  0
  4 26  1  0     0  0
  5 27  2  0     0  0
  6  7  1  0     0  0
  6 15  1  0     0  0
  7 13  2  0     0  0
  8 14  1  0     0  0
  8 16  2  0     0  0
  9 13  1  0     0  0
  9 14  1  0     0  0
 10 27  1  0     0  0
 10 29  1  0     0  0
 10 30  1  0     0  0
 11 28  1  0     0  0
 11 31  1  0     0  0
 11 32  1  0     0  0
 12 17  1  0     0  0
 12 18  2  0     0  0
 13 19  1  0     0  0
 14 20  2  0     0  0
 15 19  2  0     0  0
 15 33  1  0     0  0
 16 21  1  0     0  0
 16 28  1  0     0  0
 17 22  2  0     0  0
 17 26  1  0     0  0
 18 23  1  0     0  0
 18 27  1  0     0  0
 20 24  1  0     0  0
 21 24  2  0     0  0
 22 25  1  0     0  0
 23 25  2  0     0  0
 29 31  1  0     0  0
 30 32  1  0     0  0
M  END
> <standard_type>
pIC50

> <# Confs.>
25

> <canonical_smiles>
FC(F)(F)C1=CC=CC(C(N2CCN(CC3=NC(NC4=NNC(C)=C4)=CC=C3)CC2)=O)=C1F

> <standard_relation>
=

> <Publication_ID>
nan

> <predicted_activity_value>
6.292429823902063

> <actual_activity_value>
6.229147988357855

> <Compound>
19

> <standard_units>
nM

> hash
11576136930478842395

$$$$
18
XXILIB    08252103493D 0   0.00000     0.00000

 33 36  0     1  0            999 V2000
   -4.1948   -3.2470    0.5953 F   0  0  0  0  0  1           0  0  0
   -5.9110   -3.9787   -0.7266 F   0  0  0  0  0  1           0  0  0
   -5.3135   -5.2531   -2.3835 F   0  0  0  0  0  1           0  0  0
   -6.2856   -6.1181   -0.6475 F   0  0  0  0  0  1           0  0  0
   -1.9731   -3.4350    3.0923 O   0  0  0  0  0  2           0  0  0
    4.2258   -2.6110   -7.0843 N   0  0  0  0  0  3           0  0  0
    3.5366   -1.9454   -6.1462 N   0  0  0  0  0  3           0  0  0
    2.2924   -1.2115   -1.9545 N   0  0  0  0  0  3           0  0  0
    3.0860   -2.5039   -3.8309 N   0  0  0  0  0  3           0  0  0
   -0.9288   -2.4378    1.2850 N   0  0  2  0  0  3           0  0  0
    0.0000   -0.0000    0.0000 N   0  0  2  0  0  3           0  0  0
   -3.4865   -4.3753    0.4270 C   0  0  0  0  0  4           0  0  0
    3.6209   -2.7290   -5.0600 C   0  0  0  0  0  4           0  0  0
    2.8383   -1.2614   -3.1992 C   0  0  0  0  0  4           0  0  0
    4.7515   -3.7950   -6.6554 C   0  0  0  0  0  4           0  0  0
    2.0539    0.0000   -1.3903 C   0  0  0  0  0  4           0  0  0
   -4.0292   -5.3856   -0.3782 C   0  0  0  0  0  4           0  0  0
   -2.2367   -4.5220    1.0442 C   0  0  0  0  0  4           0  0  0
    4.3766   -3.8996   -5.3359 C   0  0  0  0  0  4           0  0  0
    3.1477   -0.0928   -3.8978 C   0  0  0  0  0  4           0  0  0
    2.3502    1.1965   -2.0314 C   0  0  0  0  0  4           0  0  0
   -3.3019   -6.5638   -0.5620 C   0  0  0  0  0  4           0  0  0
   -1.5237   -5.7103    0.8455 C   0  0  0  0  0  4           0  0  0
    2.9022    1.1412   -3.3034 C   0  0  0  0  0  4           0  0  0
   -2.0570   -6.7244    0.0465 C   0  0  0  0  0  4           0  0  0
   -5.3629   -5.1891   -1.0236 C   0  0  2  0  0  4           0  0  0
   -1.6984   -3.4224    1.8921 C   0  0  0  0  0  4           0  0  0
    1.4661    0.0000    0.0000 C   0  0  0  0  0  4           0  0  0
   -0.3989   -1.3390    2.0890 C   0  0  0  0  0  4           0  0  0
   -0.4610   -2.4773   -0.1046 C   0  0  0  0  0  4           0  0  0
   -0.5482    0.0000    1.3665 C   0  0  0  0  0  4           0  0  0
   -0.5896   -1.1060   -0.7739 C   0  0  0  0  0  4           0  0  0
    5.5460   -4.6807   -7.5324 C   0  0  0  0  0  4           0  0  0
  1 12  1  0     0  0
  2 26  1  0     0  0
  3 26  1  0     0  0
  4 26  1  0     0  0
  5 27  2  0     0  0
  6  7  1  0     0  0
  6 15  1  0     0  0
  7 13  2  0     0  0
  8 14  1  0     0  0
  8 16  2  0     0  0
  9 13  1  0     0  0
  9 14  1  0     0  0
 10 27  1  0     0  0
 10 29  1  0     0  0
 10 30  1  0     0  0
 11 28  1  0     0  0
 11 31  1  0     0  0
 11 32  1  0     0  0
 12 17  1  0     0  0
 12 18  2  0     0  0
 13 19  1  0     0  0
 14 20  2  0     0  0
 15 19  2  0     0  0
 15 33  1  0     0  0
 16 21  1  0     0  0
 16 28  1  0     0  0
 17 22  2  0     0  0
 17 26  1  0     0  0
 18 23  1  0     0  0
 18 27  1  0     0  0
 20 24  1  0     0  0
 21 24  2  0     0  0
 22 25  1  0     0  0
 23 25  2  0     0  0
 29 31  1  0     0  0
 30 32  1  0     0  0
M  END
> <standard_type>
pIC50

> <# Confs.>
25

> <canonical_smiles>
FC(F)(F)C1=CC=CC(C(N2CCN(CC3=NC(NC4=NNC(C)=C4)=CC=C3)CC2)=O)=C1F

> <standard_relation>
=

> <Publication_ID>
nan

> <predicted_activity_value>
6.292429823902063

> <actual_activity_value>
6.229147988357855

> <Compound>
19

> <standard_units>
nM

> hash
11576136930478842395

$$$$
18
XXILIB    08252103493D 0   0.00000     0.00000

 33 36  0     1  0            999 V2000
   -3.7606   -4.4407    1.9253 F   0  0  0  0  0  1           0  0  0
   -4.2407   -6.6665    1.7173 F   0  0  0  0  0  1           0  0  0
   -6.0493   -7.1141    0.5971 F   0  0  0  0  0  1           0  0  0
   -4.1052   -7.4519   -0.3047 F   0  0  0  0  0  1           0  0  0
   -4.1851   -1.5539    2.2172 O   0  0  0  0  0  2           0  0  0
    7.0936   -0.8705   -5.4730 N   0  0  0  0  0  3           0  0  0
    5.9732   -0.5439   -4.8127 N   0  0  0  0  0  3           0  0  0
    3.0815   -0.8567   -1.6210 N   0  0  0  0  0  3           0  0  0
    4.7167   -1.7702   -3.1415 N   0  0  0  0  0  3           0  0  0
   -2.6181   -1.0068    0.6058 N   0  0  2  0  0  3           0  0  0
    0.0000   -0.0000    0.0000 N   0  0  2  0  0  3           0  0  0
   -4.2706   -4.1428    0.7194 C   0  0  0  0  0  4           0  0  0
    5.7407   -1.6009   -4.0191 C   0  0  0  0  0  4           0  0  0
    3.6550   -0.8791   -2.8540 C   0  0  0  0  0  4           0  0  0
    7.5973   -2.0956   -5.1452 C   0  0  0  0  0  4           0  0  0
    2.0539    0.0000   -1.3903 C   0  0  0  0  0  4           0  0  0
   -4.8066   -5.1840   -0.0501 C   0  0  0  0  0  4           0  0  0
   -4.2631   -2.8193    0.2580 C   0  0  0  0  0  4           0  0  0
    6.7377   -2.5970   -4.1953 C   0  0  0  0  0  4           0  0  0
    3.1997   -0.0436   -3.8758 C   0  0  0  0  0  4           0  0  0
    1.5646    0.8626   -2.3635 C   0  0  0  0  0  4           0  0  0
   -5.3411   -4.8871   -1.3060 C   0  0  0  0  0  4           0  0  0
   -4.8053   -2.5434   -1.0029 C   0  0  0  0  0  4           0  0  0
    2.1492    0.8327   -3.6218 C   0  0  0  0  0  4           0  0  0
   -5.3399   -3.5747   -1.7787 C   0  0  0  0  0  4           0  0  0
   -4.8009   -6.5817    0.4792 C   0  0  2  0  0  4           0  0  0
   -3.6827   -1.7440    1.1092 C   0  0  0  0  0  4           0  0  0
    1.4661    0.0000    0.0000 C   0  0  0  0  0  4           0  0  0
   -2.0330    0.0640    1.4064 C   0  0  0  0  0  4           0  0  0
   -2.0770   -1.1237   -0.7511 C   0  0  0  0  0  4           0  0  0
   -0.5065    0.0000    1.3840 C   0  0  0  0  0  4           0  0  0
   -0.5469   -1.1576   -0.7321 C   0  0  0  0  0  4           0  0  0
    8.8259   -2.6442   -5.7573 C   0  0  0  0  0  4           0  0  0
  1 12  1  0     0  0
  2 26  1  0     0  0
  3 26  1  0     0  0
  4 26  1  0     0  0
  5 27  2  0     0  0
  6  7  1  0     0  0
  6 15  1  0     0  0
  7 13  2  0     0  0
  8 14  1  0     0  0
  8 16  2  0     0  0
  9 13  1  0     0  0
  9 14  1  0     0  0
 10 27  1  0     0  0
 10 29  1  0     0  0
 10 30  1  0     0  0
 11 28  1  0     0  0
 11 31  1  0     0  0
 11 32  1  0     0  0
 12 17  1  0     0  0
 12 18  2  0     0  0
 13 19  1  0     0  0
 14 20  2  0     0  0
 15 19  2  0     0  0
 15 33  1  0     0  0
 16 21  1  0     0  0
 16 28  1  0     0  0
 17 22  2  0     0  0
 17 26  1  0     0  0
 18 23  1  0     0  0
 18 27  1  0     0  0
 20 24  1  0     0  0
 21 24  2  0     0  0
 22 25  1  0     0  0
 23 25  2  0     0  0
 29 31  1  0     0  0
 30 32  1  0     0  0
M  END
> <standard_type>
pIC50

> <# Confs.>
25

> <canonical_smiles>
FC(F)(F)C1=CC=CC(C(N2CCN(CC3=NC(NC4=NNC(C)=C4)=CC=C3)CC2)=O)=C1F

> <standard_relation>
=

> <Publication_ID>
nan

> <predicted_activity_value>
6.292429823902063

> <actual_activity_value>
6.229147988357855

> <Compound>
19

> <standard_units>
nM

> hash
11576136930478842395

$$$$
18
XXILIB    08252103493D 0   0.00000     0.00000

 33 36  0     1  0            999 V2000
   -0.2944   -5.8293    1.4682 F   0  0  0  0  0  1           0  0  0
    0.0388   -7.9230    0.6116 F   0  0  0  0  0  1           0  0  0
   -1.7647   -9.1124    0.3687 F   0  0  0  0  0  1           0  0  0
   -0.7939   -8.2498   -1.3692 F   0  0  0  0  0  1           0  0  0
   -1.9731   -3.4350    3.0923 O   0  0  0  0  0  2           0  0  0
    7.0936   -0.8705   -5.4730 N   0  0  0  0  0  3           0  0  0
    5.9732   -0.5439   -4.8127 N   0  0  0  0  0  3           0  0  0
    3.0815   -0.8567   -1.6210 N   0  0  0  0  0  3           0  0  0
    4.7167   -1.7702   -3.1415 N   0  0  0  0  0  3           0  0  0
   -0.9288   -2.4378    1.2850 N   0  0  2  0  0  3           0  0  0
    0.0000   -0.0000    0.0000 N   0  0  2  0  0  3           0  0  0
   -1.4891   -5.6948    0.8703 C   0  0  0  0  0  4           0  0  0
    5.7407   -1.6009   -4.0191 C   0  0  0  0  0  4           0  0  0
    3.6550   -0.8791   -2.8540 C   0  0  0  0  0  4           0  0  0
    7.5973   -2.0956   -5.1452 C   0  0  0  0  0  4           0  0  0
    2.0539    0.0000   -1.3903 C   0  0  0  0  0  4           0  0  0
   -1.9589   -6.7528    0.0806 C   0  0  0  0  0  4           0  0  0
   -2.2367   -4.5220    1.0442 C   0  0  0  0  0  4           0  0  0
    6.7377   -2.5970   -4.1953 C   0  0  0  0  0  4           0  0  0
    3.1997   -0.0436   -3.8758 C   0  0  0  0  0  4           0  0  0
    1.5646    0.8626   -2.3635 C   0  0  0  0  0  4           0  0  0
   -3.2007   -6.6257   -0.5461 C   0  0  0  0  0  4           0  0  0
   -3.4795   -4.4159    0.4084 C   0  0  0  0  0  4           0  0  0
    2.1492    0.8327   -3.6218 C   0  0  0  0  0  4           0  0  0
   -3.9556   -5.4641   -0.3827 C   0  0  0  0  0  4           0  0  0
   -1.1345   -7.9895   -0.0761 C   0  0  2  0  0  4           0  0  0
   -1.6984   -3.4224    1.8921 C   0  0  0  0  0  4           0  0  0
    1.4661    0.0000    0.0000 C   0  0  0  0  0  4           0  0  0
   -0.3989   -1.3390    2.0890 C   0  0  0  0  0  4           0  0  0
   -0.4610   -2.4773   -0.1046 C   0  0  0  0  0  4           0  0  0
   -0.5482    0.0000    1.3665 C   0  0  0  0  0  4           0  0  0
   -0.5896   -1.1060   -0.7739 C   0  0  0  0  0  4           0  0  0
    8.8259   -2.6442   -5.7573 C   0  0  0  0  0  4           0  0  0
  1 12  1  0     0  0
  2 26  1  0     0  0
  3 26  1  0     0  0
  4 26  1  0     0  0
  5 27  2  0     0  0
  6  7  1  0     0  0
  6 15  1  0     0  0
  7 13  2  0     0  0
  8 14  1  0     0  0
  8 16  2  0     0  0
  9 13  1  0     0  0
  9 14  1  0     0  0
 10 27  1  0     0  0
 10 29  1  0     0  0
 10 30  1  0     0  0
 11 28  1  0     0  0
 11 31  1  0     0  0
 11 32  1  0     0  0
 12 17  1  0     0  0
 12 18  2  0     0  0
 13 19  1  0     0  0
 14 20  2  0     0  0
 15 19  2  0     0  0
 15 33  1  0     0  0
 16 21  1  0     0  0
 16 28  1  0     0  0
 17 22  2  0     0  0
 17 26  1  0     0  0
 18 23  1  0     0  0
 18 27  1  0     0  0
 20 24  1  0     0  0
 21 24  2  0     0  0
 22 25  1  0     0  0
 23 25  2  0     0  0
 29 31  1  0     0  0
 30 32  1  0     0  0
M  END
> <standard_type>
pIC50

> <# Confs.>
25

> <canonical_smiles>
FC(F)(F)C1=CC=CC(C(N2CCN(CC3=NC(NC4=NNC(C)=C4)=CC=C3)CC2)=O)=C1F

> <standard_relation>
=

> <Publication_ID>
nan

> <predicted_activity_value>
6.292429823902063

> <actual_activity_value>
6.229147988357855

> <Compound>
19

> <standard_units>
nM

> hash
11576136930478842395

$$$$
18
XXILIB    08252103493D 0   0.00000     0.00000

 33 36  0     1  0            999 V2000
   -4.2056   -4.5050    0.8901 F   0  0  0  0  0  1           0  0  0
   -5.2310   -6.3707    0.0561 F   0  0  0  0  0  1           0  0  0
   -7.3006   -6.0879   -0.5466 F   0  0  0  0  0  1           0  0  0
   -5.7494   -6.2708   -2.0523 F   0  0  0  0  0  1           0  0  0
   -3.8598   -1.9616    2.3082 O   0  0  0  0  0  2           0  0  0
    5.7032   -2.7738   -6.0608 N   0  0  0  0  0  3           0  0  0
    5.0045   -1.9950   -5.2222 N   0  0  0  0  0  3           0  0  0
    2.2924   -1.2115   -1.9545 N   0  0  0  0  0  3           0  0  0
    3.0860   -2.5039   -3.8309 N   0  0  0  0  0  3           0  0  0
   -2.6181   -1.0068    0.6058 N   0  0  2  0  0  3           0  0  0
    0.0000   -0.0000    0.0000 N   0  0  2  0  0  3           0  0  0
   -4.8923   -3.6780    0.0854 C   0  0  0  0  0  4           0  0  0
    4.0580   -2.8094   -4.7305 C   0  0  0  0  0  4           0  0  0
    2.8383   -1.2614   -3.1992 C   0  0  0  0  0  4           0  0  0
    5.2494   -4.0584   -6.1378 C   0  0  0  0  0  4           0  0  0
    2.0539    0.0000   -1.3903 C   0  0  0  0  0  4           0  0  0
   -5.8195   -4.2365   -0.8046 C   0  0  0  0  0  4           0  0  0
   -4.6786   -2.2942    0.1484 C   0  0  0  0  0  4           0  0  0
    4.1771   -4.1146   -5.2778 C   0  0  0  0  0  4           0  0  0
    3.1477   -0.0928   -3.8978 C   0  0  0  0  0  4           0  0  0
    2.3502    1.1965   -2.0314 C   0  0  0  0  0  4           0  0  0
   -6.5409   -3.3869   -1.6465 C   0  0  0  0  0  4           0  0  0
   -5.4134   -1.4606   -0.7032 C   0  0  0  0  0  4           0  0  0
    2.9022    1.1412   -3.3034 C   0  0  0  0  0  4           0  0  0
   -6.3384   -2.0076   -1.5955 C   0  0  0  0  0  4           0  0  0
   -6.0226   -5.7168   -0.8381 C   0  0  2  0  0  4           0  0  0
   -3.6827   -1.7440    1.1092 C   0  0  0  0  0  4           0  0  0
    1.4661    0.0000    0.0000 C   0  0  0  0  0  4           0  0  0
   -2.0330    0.0640    1.4064 C   0  0  0  0  0  4           0  0  0
   -2.0770   -1.1237   -0.7511 C   0  0  0  0  0  4           0  0  0
   -0.5065   -0.0000    1.3840 C   0  0  0  0  0  4           0  0  0
   -0.5469   -1.1576   -0.7321 C   0  0  0  0  0  4           0  0  0
    5.8797   -5.0780   -7.0028 C   0  0  0  0  0  4           0  0  0
  1 12  1  0     0  0
  2 26  1  0     0  0
  3 26  1  0     0  0
  4 26  1  0     0  0
  5 27  2  0     0  0
  6  7  1  0     0  0
  6 15  1  0     0  0
  7 13  2  0     0  0
  8 14  1  0     0  0
  8 16  2  0     0  0
  9 13  1  0     0  0
  9 14  1  0     0  0
 10 27  1  0     0  0
 10 29  1  0     0  0
 10 30  1  0     0  0
 11 28  1  0     0  0
 11 31  1  0     0  0
 11 32  1  0     0  0
 12 17  1  0     0  0
 12 18  2  0     0  0
 13 19  1  0     0  0
 14 20  2  0     0  0
 15 19  2  0     0  0
 15 33  1  0     0  0
 16 21  1  0     0  0
 16 28  1  0     0  0
 17 22  2  0     0  0
 17 26  1  0     0  0
 18 23  1  0     0  0
 18 27  1  0     0  0
 20 24  1  0     0  0
 21 24  2  0     0  0
 22 25  1  0     0  0
 23 25  2  0     0  0
 29 31  1  0     0  0
 30 32  1  0     0  0
M  END
> <standard_type>
pIC50

> <# Confs.>
25

> <canonical_smiles>
FC(F)(F)C1=CC=CC(C(N2CCN(CC3=NC(NC4=NNC(C)=C4)=CC=C3)CC2)=O)=C1F

> <standard_relation>
=

> <Publication_ID>
nan

> <predicted_activity_value>
6.292429823902063

> <actual_activity_value>
6.229147988357855

> <Compound>
19

> <standard_units>
nM

> hash
11576136930478842395

$$$$
18
XXILIB    08252103493D 0   0.00000     0.00000

 33 36  0     1  0            999 V2000
   -4.1948   -3.2470    0.5953 F   0  0  0  0  0  1           0  0  0
   -5.9110   -3.9787   -0.7266 F   0  0  0  0  0  1           0  0  0
   -5.3135   -5.2531   -2.3835 F   0  0  0  0  0  1           0  0  0
   -6.2856   -6.1181   -0.6475 F   0  0  0  0  0  1           0  0  0
   -1.9731   -3.4350    3.0923 O   0  0  0  0  0  2           0  0  0
    7.0936   -0.8705   -5.4730 N   0  0  0  0  0  3           0  0  0
    5.9732   -0.5439   -4.8127 N   0  0  0  0  0  3           0  0  0
    3.0815   -0.8567   -1.6210 N   0  0  0  0  0  3           0  0  0
    4.7167   -1.7702   -3.1415 N   0  0  0  0  0  3           0  0  0
   -0.9288   -2.4378    1.2850 N   0  0  2  0  0  3           0  0  0
    0.0000   -0.0000    0.0000 N   0  0  2  0  0  3           0  0  0
   -3.4865   -4.3753    0.4270 C   0  0  0  0  0  4           0  0  0
    5.7407   -1.6009   -4.0191 C   0  0  0  0  0  4           0  0  0
    3.6550   -0.8791   -2.8540 C   0  0  0  0  0  4           0  0  0
    7.5973   -2.0956   -5.1452 C   0  0  0  0  0  4           0  0  0
    2.0539    0.0000   -1.3903 C   0  0  0  0  0  4           0  0  0
   -4.0292   -5.3856   -0.3782 C   0  0  0  0  0  4           0  0  0
   -2.2367   -4.5220    1.0442 C   0  0  0  0  0  4           0  0  0
    6.7377   -2.5970   -4.1953 C   0  0  0  0  0  4           0  0  0
    3.1997   -0.0436   -3.8758 C   0  0  0  0  0  4           0  0  0
    1.5646    0.8626   -2.3635 C   0  0  0  0  0  4           0  0  0
   -3.3019   -6.5638   -0.5620 C   0  0  0  0  0  4           0  0  0
   -1.5237   -5.7103    0.8455 C   0  0  0  0  0  4           0  0  0
    2.1492    0.8327   -3.6218 C   0  0  0  0  0  4           0  0  0
   -2.0570   -6.7244    0.0465 C   0  0  0  0  0  4           0  0  0
   -5.3629   -5.1891   -1.0236 C   0  0  2  0  0  4           0  0  0
   -1.6984   -3.4224    1.8921 C   0  0  0  0  0  4           0  0  0
    1.4661    0.0000    0.0000 C   0  0  0  0  0  4           0  0  0
   -0.3989   -1.3390    2.0890 C   0  0  0  0  0  4           0  0  0
   -0.4610   -2.4773   -0.1046 C   0  0  0  0  0  4           0  0  0
   -0.5482    0.0000    1.3665 C   0  0  0  0  0  4           0  0  0
   -0.5896   -1.1060   -0.7739 C   0  0  0  0  0  4           0  0  0
    8.8259   -2.6442   -5.7573 C   0  0  0  0  0  4           0  0  0
  1 12  1  0     0  0
  2 26  1  0     0  0
  3 26  1  0     0  0
  4 26  1  0     0  0
  5 27  2  0     0  0
  6  7  1  0     0  0
  6 15  1  0     0  0
  7 13  2  0     0  0
  8 14  1  0     0  0
  8 16  2  0     0  0
  9 13  1  0     0  0
  9 14  1  0     0  0
 10 27  1  0     0  0
 10 29  1  0     0  0
 10 30  1  0     0  0
 11 28  1  0     0  0
 11 31  1  0     0  0
 11 32  1  0     0  0
 12 17  1  0     0  0
 12 18  2  0     0  0
 13 19  1  0     0  0
 14 20  2  0     0  0
 15 19  2  0     0  0
 15 33  1  0     0  0
 16 21  1  0     0  0
 16 28  1  0     0  0
 17 22  2  0     0  0
 17 26  1  0     0  0
 18 23  1  0     0  0
 18 27  1  0     0  0
 20 24  1  0     0  0
 21 24  2  0     0  0
 22 25  1  0     0  0
 23 25  2  0     0  0
 29 31  1  0     0  0
 30 32  1  0     0  0
M  END
> <standard_type>
pIC50

> <# Confs.>
25

> <canonical_smiles>
FC(F)(F)C1=CC=CC(C(N2CCN(CC3=NC(NC4=NNC(C)=C4)=CC=C3)CC2)=O)=C1F

> <standard_relation>
=

> <Publication_ID>
nan

> <predicted_activity_value>
6.292429823902063

> <actual_activity_value>
6.229147988357855

> <Compound>
19

> <standard_units>
nM

> hash
11576136930478842395

$$$$
18
XXILIB    08252103493D 0   0.00000     0.00000

 33 36  0     1  0            999 V2000
   -2.7637   -4.4069    1.2029 F   0  0  0  0  0  1           0  0  0
   -2.7183   -6.6163    0.6158 F   0  0  0  0  0  1           0  0  0
   -4.6483   -7.4638    0.0836 F   0  0  0  0  0  1           0  0  0
   -3.1938   -7.0252   -1.4652 F   0  0  0  0  0  1           0  0  0
   -4.1851   -1.5539    2.2172 O   0  0  0  0  0  2           0  0  0
    1.4709    0.8705   -7.8500 N   0  0  0  0  0  3           0  0  0
    1.7779    0.5439   -6.5862 N   0  0  0  0  0  3           0  0  0
    1.5033    0.8567   -2.2881 N   0  0  0  0  0  3           0  0  0
    1.4546    1.7702   -4.5205 N   0  0  0  0  0  3           0  0  0
   -2.6181   -1.0068    0.6058 N   0  0  2  0  0  3           0  0  0
    0.0000   -0.0000    0.0000 N   0  0  2  0  0  3           0  0  0
   -3.7611   -4.1247    0.3492 C   0  0  0  0  0  4           0  0  0
    1.3707    1.6009   -5.8665 C   0  0  0  0  0  4           0  0  0
    1.9882    0.8791   -3.5586 C   0  0  0  0  0  4           0  0  0
    0.8848    2.0956   -7.9829 C   0  0  0  0  0  4           0  0  0
    2.0539    0.0000   -1.3903 C   0  0  0  0  0  4           0  0  0
   -4.2786   -5.1652   -0.4339 C   0  0  0  0  0  4           0  0  0
   -4.2631   -2.8193    0.2580 C   0  0  0  0  0  4           0  0  0
    0.8024    2.5970   -6.7044 C   0  0  0  0  0  4           0  0  0
    3.0383    0.0436   -3.9440 C   0  0  0  0  0  4           0  0  0
    3.0928   -0.8626   -1.7175 C   0  0  0  0  0  4           0  0  0
   -5.3169   -4.8849   -1.3252 C   0  0  0  0  0  4           0  0  0
   -5.3050   -2.5605   -0.6406 C   0  0  0  0  0  4           0  0  0
    3.5881   -0.8327   -3.0135 C   0  0  0  0  0  4           0  0  0
   -5.8263   -3.5903   -1.4273 C   0  0  0  0  0  4           0  0  0
   -3.7199   -6.5453   -0.3039 C   0  0  2  0  0  4           0  0  0
   -3.6827   -1.7440    1.1092 C   0  0  0  0  0  4           0  0  0
    1.4661    0.0000   -0.0000 C   0  0  0  0  0  4           0  0  0
   -2.0330    0.0640    1.4064 C   0  0  0  0  0  4           0  0  0
   -2.0770   -1.1237   -0.7511 C   0  0  0  0  0  4           0  0  0
   -0.5065    0.0000    1.3840 C   0  0  0  0  0  4           0  0  0
   -0.5469   -1.1576   -0.7321 C   0  0  0  0  0  4           0  0  0
    0.4678    2.6442   -9.2906 C   0  0  0  0  0  4           0  0  0
  1 12  1  0     0  0
  2 26  1  0     0  0
  3 26  1  0     0  0
  4 26  1  0     0  0
  5 27  2  0     0  0
  6  7  1  0     0  0
  6 15  1  0     0  0
  7 13  2  0     0  0
  8 14  1  0     0  0
  8 16  2  0     0  0
  9 13  1  0     0  0
  9 14  1  0     0  0
 10 27  1  0     0  0
 10 29  1  0     0  0
 10 30  1  0     0  0
 11 28  1  0     0  0
 11 31  1  0     0  0
 11 32  1  0     0  0
 12 17  1  0     0  0
 12 18  2  0     0  0
 13 19  1  0     0  0
 14 20  2  0     0  0
 15 19  2  0     0  0
 15 33  1  0     0  0
 16 21  1  0     0  0
 16 28  1  0     0  0
 17 22  2  0     0  0
 17 26  1  0     0  0
 18 23  1  0     0  0
 18 27  1  0     0  0
 20 24  1  0     0  0
 21 24  2  0     0  0
 22 25  1  0     0  0
 23 25  2  0     0  0
 29 31  1  0     0  0
 30 32  1  0     0  0
M  END
> <standard_type>
pIC50

> <# Confs.>
25

> <canonical_smiles>
FC(F)(F)C1=CC=CC(C(N2CCN(CC3=NC(NC4=NNC(C)=C4)=CC=C3)CC2)=O)=C1F

> <standard_relation>
=

> <Publication_ID>
nan

> <predicted_activity_value>
6.292429823902063

> <actual_activity_value>
6.229147988357855

> <Compound>
19

> <standard_units>
nM

> hash
11576136930478842395

$$$$
18
XXILIB    08252103493D 0   0.00000     0.00000

 33 36  0     1  0            999 V2000
   -2.6462   -2.9590    3.4317 F   0  0  0  0  0  1           0  0  0
   -2.4758   -3.3515    5.6778 F   0  0  0  0  0  1           0  0  0
   -2.8724   -1.6285    6.9428 F   0  0  0  0  0  1           0  0  0
   -4.3440   -3.2144    6.7801 F   0  0  0  0  0  1           0  0  0
   -4.2310   -2.6616    0.4980 O   0  0  0  0  0  2           0  0  0
    2.8613    4.9023    6.0333 N   0  0  0  0  0  3           0  0  0
    2.7465    4.3517    4.8161 N   0  0  0  0  0  3           0  0  0
    2.2924    1.0869    2.0265 N   0  0  0  0  0  3           0  0  0
    3.0853    2.0659    4.0840 N   0  0  0  0  0  3           0  0  0
   -2.6181   -1.0068    0.6058 N   0  0  2  0  0  3           0  0  0
   -0.0000    0.0000    0.0000 N   0  0  2  0  0  3           0  0  0
   -3.6303   -2.0591    3.5891 C   0  0  0  0  0  4           0  0  0
    3.0533    3.0598    5.0106 C   0  0  0  0  0  4           0  0  0
    2.8048    2.1522    2.6991 C   0  0  0  0  0  4           0  0  0
    3.2327    4.0246    7.0099 C   0  0  0  0  0  4           0  0  0
    2.0539    1.2040    0.6952 C   0  0  0  0  0  4           0  0  0
   -4.0749   -1.7823    4.8889 C   0  0  0  0  0  4           0  0  0
   -4.1856   -1.4188    2.4727 C   0  0  0  0  0  4           0  0  0
    3.3630    2.8114    6.3743 C   0  0  0  0  0  4           0  0  0
    3.0903    3.3501    2.0414 C   0  0  0  0  0  4           0  0  0
    2.3072    2.3733   -0.0114 C   0  0  0  0  0  4           0  0  0
   -5.0974   -0.8474    5.0661 C   0  0  0  0  0  4           0  0  0
   -5.2084   -0.4840    2.6730 C   0  0  0  0  0  4           0  0  0
    2.8350    3.4560    0.6776 C   0  0  0  0  0  4           0  0  0
   -5.6602   -0.2028    3.9645 C   0  0  0  0  0  4           0  0  0
   -3.4537   -2.4821    6.0542 C   0  0  2  0  0  4           0  0  0
   -3.6827   -1.7440    1.1092 C   0  0  0  0  0  4           0  0  0
    1.4661    0.0000   -0.0000 C   0  0  0  0  0  4           0  0  0
   -2.0330    0.0640    1.4064 C   0  0  0  0  0  4           0  0  0
   -2.0770   -1.1237   -0.7511 C   0  0  0  0  0  4           0  0  0
   -0.5065    0.0000    1.3840 C   0  0  0  0  0  4           0  0  0
   -0.5469   -1.1576   -0.7321 C   0  0  0  0  0  4           0  0  0
    3.4140    4.4283    8.4202 C   0  0  0  0  0  4           0  0  0
  1 12  1  0     0  0
  2 26  1  0     0  0
  3 26  1  0     0  0
  4 26  1  0     0  0
  5 27  2  0     0  0
  6  7  1  0     0  0
  6 15  1  0     0  0
  7 13  2  0     0  0
  8 14  1  0     0  0
  8 16  2  0     0  0
  9 13  1  0     0  0
  9 14  1  0     0  0
 10 27  1  0     0  0
 10 29  1  0     0  0
 10 30  1  0     0  0
 11 28  1  0     0  0
 11 31  1  0     0  0
 11 32  1  0     0  0
 12 17  1  0     0  0
 12 18  2  0     0  0
 13 19  1  0     0  0
 14 20  2  0     0  0
 15 19  2  0     0  0
 15 33  1  0     0  0
 16 21  1  0     0  0
 16 28  1  0     0  0
 17 22  2  0     0  0
 17 26  1  0     0  0
 18 23  1  0     0  0
 18 27  1  0     0  0
 20 24  1  0     0  0
 21 24  2  0     0  0
 22 25  1  0     0  0
 23 25  2  0     0  0
 29 31  1  0     0  0
 30 32  1  0     0  0
M  END
> <standard_type>
pIC50

> <# Confs.>
25

> <canonical_smiles>
FC(F)(F)C1=CC=CC(C(N2CCN(CC3=NC(NC4=NNC(C)=C4)=CC=C3)CC2)=O)=C1F

> <standard_relation>
=

> <Publication_ID>
nan

> <predicted_activity_value>
6.292429823902063

> <actual_activity_value>
6.229147988357855

> <Compound>
19

> <standard_units>
nM

> hash
11576136930478842395

$$$$
18
XXILIB    08252103493D 0   0.00000     0.00000

 33 36  0     1  0            999 V2000
   -6.3724   -1.7182    0.2671 F   0  0  0  0  0  1           0  0  0
   -8.2226   -2.5100   -0.8181 F   0  0  0  0  0  1           0  0  0
   -7.8148   -3.5761   -2.6684 F   0  0  0  0  0  1           0  0  0
   -8.3911   -4.6758   -0.8892 F   0  0  0  0  0  1           0  0  0
   -4.1851   -1.5539    2.2172 O   0  0  0  0  0  2           0  0  0
    2.8613    4.9023    6.0333 N   0  0  0  0  0  3           0  0  0
    2.7465    4.3517    4.8161 N   0  0  0  0  0  3           0  0  0
    2.2924    1.0869    2.0265 N   0  0  0  0  0  3           0  0  0
    3.0853    2.0659    4.0840 N   0  0  0  0  0  3           0  0  0
   -2.6181   -1.0068    0.6058 N   0  0  2  0  0  3           0  0  0
    0.0000   -0.0000    0.0000 N   0  0  2  0  0  3           0  0  0
   -5.6093   -2.7506   -0.1264 C   0  0  0  0  0  4           0  0  0
    3.0533    3.0598    5.0106 C   0  0  0  0  0  4           0  0  0
    2.8048    2.1522    2.6991 C   0  0  0  0  0  4           0  0  0
    3.2327    4.0246    7.0099 C   0  0  0  0  0  4           0  0  0
    2.0539    1.2040    0.6952 C   0  0  0  0  0  4           0  0  0
   -6.1944   -3.7414   -0.9262 C   0  0  0  0  0  4           0  0  0
   -4.2631   -2.8193    0.2580 C   0  0  0  0  0  4           0  0  0
    3.3630    2.8114    6.3743 C   0  0  0  0  0  4           0  0  0
    3.0903    3.3501    2.0414 C   0  0  0  0  0  4           0  0  0
    2.3072    2.3733   -0.0114 C   0  0  0  0  0  4           0  0  0
   -5.4109   -4.8201   -1.3430 C   0  0  0  0  0  4           0  0  0
   -3.4955   -3.9082   -0.1720 C   0  0  0  0  0  4           0  0  0
    2.8350    3.4560    0.6776 C   0  0  0  0  0  4           0  0  0
   -4.0699   -4.9022   -0.9677 C   0  0  0  0  0  4           0  0  0
   -7.6319   -3.6297   -1.3194 C   0  0  2  0  0  4           0  0  0
   -3.6827   -1.7440    1.1092 C   0  0  0  0  0  4           0  0  0
    1.4661    0.0000   -0.0000 C   0  0  0  0  0  4           0  0  0
   -2.0330    0.0640    1.4064 C   0  0  0  0  0  4           0  0  0
   -2.0770   -1.1237   -0.7511 C   0  0  0  0  0  4           0  0  0
   -0.5065    0.0000    1.3840 C   0  0  0  0  0  4           0  0  0
   -0.5469   -1.1576   -0.7321 C   0  0  0  0  0  4           0  0  0
    3.4140    4.4283    8.4202 C   0  0  0  0  0  4           0  0  0
  1 12  1  0     0  0
  2 26  1  0     0  0
  3 26  1  0     0  0
  4 26  1  0     0  0
  5 27  2  0     0  0
  6  7  1  0     0  0
  6 15  1  0     0  0
  7 13  2  0     0  0
  8 14  1  0     0  0
  8 16  2  0     0  0
  9 13  1  0     0  0
  9 14  1  0     0  0
 10 27  1  0     0  0
 10 29  1  0     0  0
 10 30  1  0     0  0
 11 28  1  0     0  0
 11 31  1  0     0  0
 11 32  1  0     0  0
 12 17  1  0     0  0
 12 18  2  0     0  0
 13 19  1  0     0  0
 14 20  2  0     0  0
 15 19  2  0     0  0
 15 33  1  0     0  0
 16 21  1  0     0  0
 16 28  1  0     0  0
 17 22  2  0     0  0
 17 26  1  0     0  0
 18 23  1  0     0  0
 18 27  1  0     0  0
 20 24  1  0     0  0
 21 24  2  0     0  0
 22 25  1  0     0  0
 23 25  2  0     0  0
 29 31  1  0     0  0
 30 32  1  0     0  0
M  END
> <standard_type>
pIC50

> <# Confs.>
25

> <canonical_smiles>
FC(F)(F)C1=CC=CC(C(N2CCN(CC3=NC(NC4=NNC(C)=C4)=CC=C3)CC2)=O)=C1F

> <standard_relation>
=

> <Publication_ID>
nan

> <predicted_activity_value>
6.292429823902063

> <actual_activity_value>
6.229147988357855

> <Compound>
19

> <standard_units>
nM

> hash
11576136930478842395

$$$$
18
XXILIB    08252103493D 0   0.00000     0.00000

 33 36  0     1  0            999 V2000
   -0.2944   -5.8293    1.4682 F   0  0  0  0  0  1           0  0  0
    0.0388   -7.9230    0.6116 F   0  0  0  0  0  1           0  0  0
   -1.7647   -9.1124    0.3687 F   0  0  0  0  0  1           0  0  0
   -0.7939   -8.2498   -1.3692 F   0  0  0  0  0  1           0  0  0
   -1.9731   -3.4350    3.0923 O   0  0  0  0  0  2           0  0  0
    4.6248    4.6835    5.7190 N   0  0  0  0  0  3           0  0  0
    4.4321    4.0222    4.5686 N   0  0  0  0  0  3           0  0  0
    2.2924    1.0869    2.0265 N   0  0  0  0  0  3           0  0  0
    3.0853    2.0659    4.0840 N   0  0  0  0  0  3           0  0  0
   -0.9288   -2.4378    1.2850 N   0  0  2  0  0  3           0  0  0
    0.0000   -0.0000    0.0000 N   0  0  2  0  0  3           0  0  0
   -1.4891   -5.6948    0.8703 C   0  0  0  0  0  4           0  0  0
    3.5943    3.0273    4.8990 C   0  0  0  0  0  4           0  0  0
    2.8048    2.1522    2.6991 C   0  0  0  0  0  4           0  0  0
    3.9510    4.1594    6.7835 C   0  0  0  0  0  4           0  0  0
    2.0539    1.2040    0.6952 C   0  0  0  0  0  4           0  0  0
   -1.9589   -6.7528    0.0806 C   0  0  0  0  0  4           0  0  0
   -2.2367   -4.5220    1.0442 C   0  0  0  0  0  4           0  0  0
    3.2657    3.0779    6.2799 C   0  0  0  0  0  4           0  0  0
    3.0903    3.3501    2.0414 C   0  0  0  0  0  4           0  0  0
    2.3072    2.3733   -0.0114 C   0  0  0  0  0  4           0  0  0
   -3.2007   -6.6257   -0.5461 C   0  0  0  0  0  4           0  0  0
   -3.4795   -4.4159    0.4084 C   0  0  0  0  0  4           0  0  0
    2.8350    3.4560    0.6776 C   0  0  0  0  0  4           0  0  0
   -3.9556   -5.4641   -0.3827 C   0  0  0  0  0  4           0  0  0
   -1.1345   -7.9895   -0.0761 C   0  0  2  0  0  4           0  0  0
   -1.6984   -3.4224    1.8921 C   0  0  0  0  0  4           0  0  0
    1.4661    0.0000   -0.0000 C   0  0  0  0  0  4           0  0  0
   -0.3989   -1.3390    2.0890 C   0  0  0  0  0  4           0  0  0
   -0.4610   -2.4773   -0.1046 C   0  0  0  0  0  4           0  0  0
   -0.5482    0.0000    1.3665 C   0  0  0  0  0  4           0  0  0
   -0.5896   -1.1060   -0.7739 C   0  0  0  0  0  4           0  0  0
    4.0264    4.7393    8.1410 C   0  0  0  0  0  4           0  0  0
  1 12  1  0     0  0
  2 26  1  0     0  0
  3 26  1  0     0  0
  4 26  1  0     0  0
  5 27  2  0     0  0
  6  7  1  0     0  0
  6 15  1  0     0  0
  7 13  2  0     0  0
  8 14  1  0     0  0
  8 16  2  0     0  0
  9 13  1  0     0  0
  9 14  1  0     0  0
 10 27  1  0     0  0
 10 29  1  0     0  0
 10 30  1  0     0  0
 11 28  1  0     0  0
 11 31  1  0     0  0
 11 32  1  0     0  0
 12 17  1  0     0  0
 12 18  2  0     0  0
 13 19  1  0     0  0
 14 20  2  0     0  0
 15 19  2  0     0  0
 15 33  1  0     0  0
 16 21  1  0     0  0
 16 28  1  0     0  0
 17 22  2  0     0  0
 17 26  1  0     0  0
 18 23  1  0     0  0
 18 27  1  0     0  0
 20 24  1  0     0  0
 21 24  2  0     0  0
 22 25  1  0     0  0
 23 25  2  0     0  0
 29 31  1  0     0  0
 30 32  1  0     0  0
M  END
> <standard_type>
pIC50

> <# Confs.>
25

> <canonical_smiles>
FC(F)(F)C1=CC=CC(C(N2CCN(CC3=NC(NC4=NNC(C)=C4)=CC=C3)CC2)=O)=C1F

> <standard_relation>
=

> <Publication_ID>
nan

> <predicted_activity_value>
6.292429823902063

> <actual_activity_value>
6.229147988357855

> <Compound>
19

> <standard_units>
nM

> hash
11576136930478842395

$$$$
18
XXILIB    08252103493D 0   0.00000     0.00000

 33 36  0     1  0            999 V2000
   -3.7606   -4.4407    1.9253 F   0  0  0  0  0  1           0  0  0
   -4.2407   -6.6665    1.7173 F   0  0  0  0  0  1           0  0  0
   -6.0493   -7.1141    0.5971 F   0  0  0  0  0  1           0  0  0
   -4.1052   -7.4519   -0.3047 F   0  0  0  0  0  1           0  0  0
   -4.1851   -1.5539    2.2172 O   0  0  0  0  0  2           0  0  0
    2.8613    4.9023    6.0333 N   0  0  0  0  0  3           0  0  0
    2.7465    4.3517    4.8161 N   0  0  0  0  0  3           0  0  0
    2.2924    1.0869    2.0265 N   0  0  0  0  0  3           0  0  0
    3.0853    2.0659    4.0840 N   0  0  0  0  0  3           0  0  0
   -2.6181   -1.0068    0.6058 N   0  0  2  0  0  3           0  0  0
    0.0000   -0.0000    0.0000 N   0  0  2  0  0  3           0  0  0
   -4.2706   -4.1428    0.7194 C   0  0  0  0  0  4           0  0  0
    3.0533    3.0598    5.0106 C   0  0  0  0  0  4           0  0  0
    2.8048    2.1522    2.6991 C   0  0  0  0  0  4           0  0  0
    3.2327    4.0246    7.0099 C   0  0  0  0  0  4           0  0  0
    2.0539    1.2040    0.6952 C   0  0  0  0  0  4           0  0  0
   -4.8066   -5.1840   -0.0501 C   0  0  0  0  0  4           0  0  0
   -4.2631   -2.8193    0.2580 C   0  0  0  0  0  4           0  0  0
    3.3630    2.8114    6.3743 C   0  0  0  0  0  4           0  0  0
    3.0903    3.3501    2.0414 C   0  0  0  0  0  4           0  0  0
    2.3072    2.3733   -0.0114 C   0  0  0  0  0  4           0  0  0
   -5.3411   -4.8871   -1.3060 C   0  0  0  0  0  4           0  0  0
   -4.8053   -2.5434   -1.0029 C   0  0  0  0  0  4           0  0  0
    2.8350    3.4560    0.6776 C   0  0  0  0  0  4           0  0  0
   -5.3399   -3.5747   -1.7787 C   0  0  0  0  0  4           0  0  0
   -4.8009   -6.5817    0.4792 C   0  0  2  0  0  4           0  0  0
   -3.6827   -1.7440    1.1092 C   0  0  0  0  0  4           0  0  0
    1.4661    0.0000   -0.0000 C   0  0  0  0  0  4           0  0  0
   -2.0330    0.0640    1.4064 C   0  0  0  0  0  4           0  0  0
   -2.0770   -1.1237   -0.7511 C   0  0  0  0  0  4           0  0  0
   -0.5065    0.0000    1.3840 C   0  0  0  0  0  4           0  0  0
   -0.5469   -1.1576   -0.7321 C   0  0  0  0  0  4           0  0  0
    3.4140    4.4283    8.4202 C   0  0  0  0  0  4           0  0  0
  1 12  1  0     0  0
  2 26  1  0     0  0
  3 26  1  0     0  0
  4 26  1  0     0  0
  5 27  2  0     0  0
  6  7  1  0     0  0
  6 15  1  0     0  0
  7 13  2  0     0  0
  8 14  1  0     0  0
  8 16  2  0     0  0
  9 13  1  0     0  0
  9 14  1  0     0  0
 10 27  1  0     0  0
 10 29  1  0     0  0
 10 30  1  0     0  0
 11 28  1  0     0  0
 11 31  1  0     0  0
 11 32  1  0     0  0
 12 17  1  0     0  0
 12 18  2  0     0  0
 13 19  1  0     0  0
 14 20  2  0     0  0
 15 19  2  0     0  0
 15 33  1  0     0  0
 16 21  1  0     0  0
 16 28  1  0     0  0
 17 22  2  0     0  0
 17 26  1  0     0  0
 18 23  1  0     0  0
 18 27  1  0     0  0
 20 24  1  0     0  0
 21 24  2  0     0  0
 22 25  1  0     0  0
 23 25  2  0     0  0
 29 31  1  0     0  0
 30 32  1  0     0  0
M  END
> <standard_type>
pIC50

> <# Confs.>
25

> <canonical_smiles>
FC(F)(F)C1=CC=CC(C(N2CCN(CC3=NC(NC4=NNC(C)=C4)=CC=C3)CC2)=O)=C1F

> <standard_relation>
=

> <Publication_ID>
nan

> <predicted_activity_value>
6.292429823902063

> <actual_activity_value>
6.229147988357855

> <Compound>
19

> <standard_units>
nM

> hash
11576136930478842395

$$$$
18
XXILIB    08252103493D 0   0.00000     0.00000

 33 36  0     1  0            999 V2000
   -5.7796   -1.2633   -0.7118 F   0  0  0  0  0  1           0  0  0
   -7.3163   -1.8168   -2.3119 F   0  0  0  0  0  1           0  0  0
   -6.6869   -3.3786   -3.6870 F   0  0  0  0  0  1           0  0  0
   -8.1427   -3.8196   -2.1401 F   0  0  0  0  0  1           0  0  0
   -4.1851   -1.5539    2.2172 O   0  0  0  0  0  2           0  0  0
    2.8613   -7.6762    1.2289 N   0  0  0  0  0  3           0  0  0
    2.7465   -6.3467    1.3607 N   0  0  0  0  0  3           0  0  0
    2.2924   -2.2984   -0.0719 N   0  0  0  0  0  3           0  0  0
    3.0853   -4.5698   -0.2528 N   0  0  0  0  0  3           0  0  0
   -2.6181   -1.0068    0.6058 N   0  0  2  0  0  3           0  0  0
    0.0000   -0.0000    0.0000 N   0  0  2  0  0  3           0  0  0
   -5.3068   -2.5172   -0.6275 C   0  0  0  0  0  4           0  0  0
    3.0533   -5.8692    0.1446 C   0  0  0  0  0  4           0  0  0
    2.8048   -3.4136    0.5143 C   0  0  0  0  0  4           0  0  0
    3.2327   -8.0830   -0.0195 C   0  0  0  0  0  4           0  0  0
    2.0539   -1.2040    0.6952 C   0  0  0  0  0  4           0  0  0
   -5.8811   -3.4994   -1.4455 C   0  0  0  0  0  4           0  0  0
   -4.2631   -2.8193    0.2580 C   0  0  0  0  0  4           0  0  0
    3.3630   -6.9261   -0.7524 C   0  0  0  0  0  4           0  0  0
    3.0903   -3.4430    1.8806 C   0  0  0  0  0  4           0  0  0
    2.3072   -1.1767    2.0610 C   0  0  0  0  0  4           0  0  0
   -5.3976   -4.8076   -1.3679 C   0  0  0  0  0  4           0  0  0
   -3.7925   -4.1364    0.3188 C   0  0  0  0  0  4           0  0  0
    2.8350   -2.3149    2.6542 C   0  0  0  0  0  4           0  0  0
   -4.3598   -5.1232   -0.4908 C   0  0  0  0  0  4           0  0  0
   -6.9889   -3.1366   -2.3808 C   0  0  2  0  0  4           0  0  0
   -3.6827   -1.7440    1.1092 C   0  0  0  0  0  4           0  0  0
    1.4661    0.0000    0.0000 C   0  0  0  0  0  4           0  0  0
   -2.0330    0.0640    1.4064 C   0  0  0  0  0  4           0  0  0
   -2.0770   -1.1237   -0.7511 C   0  0  0  0  0  4           0  0  0
   -0.5065    0.0000    1.3840 C   0  0  0  0  0  4           0  0  0
   -0.5469   -1.1576   -0.7321 C   0  0  0  0  0  4           0  0  0
    3.4140   -9.5063   -0.3751 C   0  0  0  0  0  4           0  0  0
  1 12  1  0     0  0
  2 26  1  0     0  0
  3 26  1  0     0  0
  4 26  1  0     0  0
  5 27  2  0     0  0
  6  7  1  0     0  0
  6 15  1  0     0  0
  7 13  2  0     0  0
  8 14  1  0     0  0
  8 16  2  0     0  0
  9 13  1  0     0  0
  9 14  1  0     0  0
 10 27  1  0     0  0
 10 29  1  0     0  0
 10 30  1  0     0  0
 11 28  1  0     0  0
 11 31  1  0     0  0
 11 32  1  0     0  0
 12 17  1  0     0  0
 12 18  2  0     0  0
 13 19  1  0     0  0
 14 20  2  0     0  0
 15 19  2  0     0  0
 15 33  1  0     0  0
 16 21  1  0     0  0
 16 28  1  0     0  0
 17 22  2  0     0  0
 17 26  1  0     0  0
 18 23  1  0     0  0
 18 27  1  0     0  0
 20 24  1  0     0  0
 21 24  2  0     0  0
 22 25  1  0     0  0
 23 25  2  0     0  0
 29 31  1  0     0  0
 30 32  1  0     0  0
M  END
> <standard_type>
pIC50

> <# Confs.>
25

> <canonical_smiles>
FC(F)(F)C1=CC=CC(C(N2CCN(CC3=NC(NC4=NNC(C)=C4)=CC=C3)CC2)=O)=C1F

> <standard_relation>
=

> <Publication_ID>
nan

> <predicted_activity_value>
6.292429823902063

> <actual_activity_value>
6.229147988357855

> <Compound>
19

> <standard_units>
nM

> hash
11576136930478842395

$$$$
18
XXILIB    08252103493D 0   0.00000     0.00000

 33 36  0     1  0            999 V2000
   -4.1948   -3.2470    0.5953 F   0  0  0  0  0  1           0  0  0
   -5.9110   -3.9787   -0.7266 F   0  0  0  0  0  1           0  0  0
   -5.3135   -5.2531   -2.3835 F   0  0  0  0  0  1           0  0  0
   -6.2856   -6.1181   -0.6475 F   0  0  0  0  0  1           0  0  0
   -1.9731   -3.4350    3.0923 O   0  0  0  0  0  2           0  0  0
    4.6248    4.6835    5.7190 N   0  0  0  0  0  3           0  0  0
    4.4321    4.0222    4.5686 N   0  0  0  0  0  3           0  0  0
    2.2924    1.0869    2.0265 N   0  0  0  0  0  3           0  0  0
    3.0853    2.0659    4.0840 N   0  0  0  0  0  3           0  0  0
   -0.9288   -2.4378    1.2850 N   0  0  2  0  0  3           0  0  0
    0.0000   -0.0000    0.0000 N   0  0  2  0  0  3           0  0  0
   -3.4865   -4.3753    0.4270 C   0  0  0  0  0  4           0  0  0
    3.5943    3.0273    4.8990 C   0  0  0  0  0  4           0  0  0
    2.8048    2.1522    2.6991 C   0  0  0  0  0  4           0  0  0
    3.9510    4.1594    6.7835 C   0  0  0  0  0  4           0  0  0
    2.0539    1.2040    0.6952 C   0  0  0  0  0  4           0  0  0
   -4.0292   -5.3856   -0.3782 C   0  0  0  0  0  4           0  0  0
   -2.2367   -4.5220    1.0442 C   0  0  0  0  0  4           0  0  0
    3.2657    3.0779    6.2799 C   0  0  0  0  0  4           0  0  0
    3.0903    3.3501    2.0414 C   0  0  0  0  0  4           0  0  0
    2.3072    2.3733   -0.0114 C   0  0  0  0  0  4           0  0  0
   -3.3019   -6.5638   -0.5620 C   0  0  0  0  0  4           0  0  0
   -1.5237   -5.7103    0.8455 C   0  0  0  0  0  4           0  0  0
    2.8350    3.4560    0.6776 C   0  0  0  0  0  4           0  0  0
   -2.0570   -6.7244    0.0465 C   0  0  0  0  0  4           0  0  0
   -5.3629   -5.1891   -1.0236 C   0  0  2  0  0  4           0  0  0
   -1.6984   -3.4224    1.8921 C   0  0  0  0  0  4           0  0  0
    1.4661    0.0000   -0.0000 C   0  0  0  0  0  4           0  0  0
   -0.3989   -1.3390    2.0890 C   0  0  0  0  0  4           0  0  0
   -0.4610   -2.4773   -0.1046 C   0  0  0  0  0  4           0  0  0
   -0.5482    0.0000    1.3665 C   0  0  0  0  0  4           0  0  0
   -0.5896   -1.1060   -0.7739 C   0  0  0  0  0  4           0  0  0
    4.0264    4.7393    8.1410 C   0  0  0  0  0  4           0  0  0
  1 12  1  0     0  0
  2 26  1  0     0  0
  3 26  1  0     0  0
  4 26  1  0     0  0
  5 27  2  0     0  0
  6  7  1  0     0  0
  6 15  1  0     0  0
  7 13  2  0     0  0
  8 14  1  0     0  0
  8 16  2  0     0  0
  9 13  1  0     0  0
  9 14  1  0     0  0
 10 27  1  0     0  0
 10 29  1  0     0  0
 10 30  1  0     0  0
 11 28  1  0     0  0
 11 31  1  0     0  0
 11 32  1  0     0  0
 12 17  1  0     0  0
 12 18  2  0     0  0
 13 19  1  0     0  0
 14 20  2  0     0  0
 15 19  2  0     0  0
 15 33  1  0     0  0
 16 21  1  0     0  0
 16 28  1  0     0  0
 17 22  2  0     0  0
 17 26  1  0     0  0
 18 23  1  0     0  0
 18 27  1  0     0  0
 20 24  1  0     0  0
 21 24  2  0     0  0
 22 25  1  0     0  0
 23 25  2  0     0  0
 29 31  1  0     0  0
 30 32  1  0     0  0
M  END
> <standard_type>
pIC50

> <# Confs.>
25

> <canonical_smiles>
FC(F)(F)C1=CC=CC(C(N2CCN(CC3=NC(NC4=NNC(C)=C4)=CC=C3)CC2)=O)=C1F

> <standard_relation>
=

> <Publication_ID>
nan

> <predicted_activity_value>
6.292429823902063

> <actual_activity_value>
6.229147988357855

> <Compound>
19

> <standard_units>
nM

> hash
11576136930478842395

$$$$
18
XXILIB    08252103493D 0   0.00000     0.00000

 33 36  0     1  0            999 V2000
   -4.2056   -4.5050    0.8901 F   0  0  0  0  0  1           0  0  0
   -5.2310   -6.3707    0.0561 F   0  0  0  0  0  1           0  0  0
   -7.3006   -6.0879   -0.5466 F   0  0  0  0  0  1           0  0  0
   -5.7494   -6.2708   -2.0523 F   0  0  0  0  0  1           0  0  0
   -3.8598   -1.9616    2.3082 O   0  0  0  0  0  2           0  0  0
    4.6248    4.6835    5.7190 N   0  0  0  0  0  3           0  0  0
    4.4321    4.0222    4.5686 N   0  0  0  0  0  3           0  0  0
    2.2924    1.0869    2.0265 N   0  0  0  0  0  3           0  0  0
    3.0853    2.0659    4.0840 N   0  0  0  0  0  3           0  0  0
   -2.6181   -1.0068    0.6058 N   0  0  2  0  0  3           0  0  0
    0.0000   -0.0000    0.0000 N   0  0  2  0  0  3           0  0  0
   -4.8923   -3.6780    0.0854 C   0  0  0  0  0  4           0  0  0
    3.5943    3.0273    4.8990 C   0  0  0  0  0  4           0  0  0
    2.8048    2.1522    2.6991 C   0  0  0  0  0  4           0  0  0
    3.9510    4.1594    6.7835 C   0  0  0  0  0  4           0  0  0
    2.0539    1.2040    0.6952 C   0  0  0  0  0  4           0  0  0
   -5.8195   -4.2365   -0.8046 C   0  0  0  0  0  4           0  0  0
   -4.6786   -2.2942    0.1484 C   0  0  0  0  0  4           0  0  0
    3.2657    3.0779    6.2799 C   0  0  0  0  0  4           0  0  0
    3.0903    3.3501    2.0414 C   0  0  0  0  0  4           0  0  0
    2.3072    2.3733   -0.0114 C   0  0  0  0  0  4           0  0  0
   -6.5409   -3.3869   -1.6465 C   0  0  0  0  0  4           0  0  0
   -5.4134   -1.4606   -0.7032 C   0  0  0  0  0  4           0  0  0
    2.8350    3.4560    0.6776 C   0  0  0  0  0  4           0  0  0
   -6.3384   -2.0076   -1.5955 C   0  0  0  0  0  4           0  0  0
   -6.0226   -5.7168   -0.8381 C   0  0  2  0  0  4           0  0  0
   -3.6827   -1.7440    1.1092 C   0  0  0  0  0  4           0  0  0
    1.4661    0.0000   -0.0000 C   0  0  0  0  0  4           0  0  0
   -2.0330    0.0640    1.4064 C   0  0  0  0  0  4           0  0  0
   -2.0770   -1.1237   -0.7511 C   0  0  0  0  0  4           0  0  0
   -0.5065   -0.0000    1.3840 C   0  0  0  0  0  4           0  0  0
   -0.5469   -1.1576   -0.7321 C   0  0  0  0  0  4           0  0  0
    4.0264    4.7393    8.1410 C   0  0  0  0  0  4           0  0  0
  1 12  1  0     0  0
  2 26  1  0     0  0
  3 26  1  0     0  0
  4 26  1  0     0  0
  5 27  2  0     0  0
  6  7  1  0     0  0
  6 15  1  0     0  0
  7 13  2  0     0  0
  8 14  1  0     0  0
  8 16  2  0     0  0
  9 13  1  0     0  0
  9 14  1  0     0  0
 10 27  1  0     0  0
 10 29  1  0     0  0
 10 30  1  0     0  0
 11 28  1  0     0  0
 11 31  1  0     0  0
 11 32  1  0     0  0
 12 17  1  0     0  0
 12 18  2  0     0  0
 13 19  1  0     0  0
 14 20  2  0     0  0
 15 19  2  0     0  0
 15 33  1  0     0  0
 16 21  1  0     0  0
 16 28  1  0     0  0
 17 22  2  0     0  0
 17 26  1  0     0  0
 18 23  1  0     0  0
 18 27  1  0     0  0
 20 24  1  0     0  0
 21 24  2  0     0  0
 22 25  1  0     0  0
 23 25  2  0     0  0
 29 31  1  0     0  0
 30 32  1  0     0  0
M  END
> <standard_type>
pIC50

> <# Confs.>
25

> <canonical_smiles>
FC(F)(F)C1=CC=CC(C(N2CCN(CC3=NC(NC4=NNC(C)=C4)=CC=C3)CC2)=O)=C1F

> <standard_relation>
=

> <Publication_ID>
nan

> <predicted_activity_value>
6.292429823902063

> <actual_activity_value>
6.229147988357855

> <Compound>
19

> <standard_units>
nM

> hash
11576136930478842395

$$$$
12
XXILIB    08252103493D 0   0.00000     0.00000

 37 41  0     1  0            999 V2000
   -6.2807    2.3267    0.7804 S   0  0  0  0  0  2           0  0  0
    1.3659   -0.0000   -0.0000 O   0  0  0  0  0  2           0  0  0
    0.2196   -0.0024    2.3371 O   0  0  0  0  0  2           0  0  0
   -8.9362    4.4365    2.7463 O   0  0  0  0  0  2           0  0  0
    4.7764    3.5305   -4.6629 O   0  0  0  0  0  2           0  0  0
   -6.4868    0.9131    2.9115 N   0  0  0  0  0  3           0  0  0
   -4.9324   -0.0242   -1.0125 N   0  0  0  0  0  3           0  0  0
   -2.8758   -0.0236   -2.2436 N   0  0  0  0  0  3           0  0  0
   -4.9476    0.0220    1.3725 N   0  0  0  0  0  3           0  0  0
   -7.9907    4.7759    0.6724 N   0  0  0  0  0  3           0  0  0
    3.9945    1.1685   -3.2644 N   0  0  2  0  0  3           0  0  0
   -5.8499    0.9559    1.7564 C   0  0  0  0  0  4           0  0  0
   -7.3671    2.8730    1.9828 C   0  0  0  0  0  4           0  0  0
    0.0000    0.0000   -0.0000 C   0  0  0  0  0  4           0  0  0
   -0.6156   -0.0000    1.2556 C   0  0  0  0  0  4           0  0  0
   -4.2125   -0.0383   -2.1425 C   0  0  0  0  0  4           0  0  0
   -4.2388    0.0212    0.1525 C   0  0  0  0  0  4           0  0  0
   -2.1858   -0.0060   -1.0954 C   0  0  0  0  0  4           0  0  0
   -7.3392    1.9899    3.0415 C   0  0  0  0  0  4           0  0  0
   -8.6039    5.9665    0.2386 C   0  0  0  0  0  4           0  0  0
   -2.8194    0.0078    0.1619 C   0  0  0  0  0  4           0  0  0
   -0.7937   -0.0075   -1.1541 C   0  0  0  0  0  4           0  0  0
   -2.0130    0.0014    1.3293 C   0  0  0  0  0  4           0  0  0
   -9.5461    6.6501    1.0168 C   0  0  0  0  0  4           0  0  0
   -8.2478    6.4727   -1.0168 C   0  0  0  0  0  4           0  0  0
  -10.1241    7.8284    0.5390 C   0  0  0  0  0  4           0  0  0
   -8.8287    7.6506   -1.4895 C   0  0  0  0  0  4           0  0  0
   -9.7666    8.3279   -0.7124 C   0  0  0  0  0  4           0  0  0
   -8.1640    4.0749    1.8581 C   0  0  0  0  0  4           0  0  0
    1.9812    0.0000   -1.2882 C   0  0  0  0  0  4           0  0  0
    4.4793    2.3304   -5.3755 C   0  0  0  0  0  4           0  0  0
    3.9957    3.6184   -3.4714 C   0  0  0  0  0  4           0  0  0
   -0.4267   -0.0023    3.6083 C   0  0  0  0  0  4           0  0  0
    4.7772    1.1107   -4.5090 C   0  0  0  0  0  4           0  0  0
    4.2793    2.4288   -2.5579 C   0  0  0  0  0  4           0  0  0
    4.2803    0.0000   -2.4275 C   0  0  0  0  0  4           0  0  0
    3.4948   -0.0000   -1.1130 C   0  0  0  0  0  4           0  0  0
  1 12  1  0     0  0
  1 13  1  0     0  0
  2 14  1  0     0  0
  2 30  1  0     0  0
  3 15  1  0     0  0
  3 33  1  0     0  0
  4 29  2  0     0  0
  5 31  1  0     0  0
  5 32  1  0     0  0
  6 12  2  0     0  0
  6 19  1  0     0  0
  7 16  1  0     0  0
  7 17  2  0     0  0
  8 16  2  0     0  0
  8 18  1  0     0  0
  9 12  1  0     0  0
  9 17  1  0     0  0
 10 20  1  0     0  0
 10 29  1  0     0  0
 11 34  1  0     0  0
 11 35  1  0     0  0
 11 36  1  0     0  0
 13 19  2  0     0  0
 13 29  1  0     0  0
 14 15  1  0     0  0
 14 22  2  0     0  0
 15 23  2  0     0  0
 17 21  1  0     0  0
 18 21  2  0     0  0
 18 22  1  0     0  0
 20 24  2  0     0  0
 20 25  1  0     0  0
 21 23  1  0     0  0
 24 26  1  0     0  0
 25 27  2  0     0  0
 26 28  2  0     0  0
 27 28  1  0     0  0
 30 37  1  0     0  0
 31 34  1  0     0  0
 32 35  1  0     0  0
 36 37  1  0     0  0
M  END
> <standard_type>
pIC50

> <# Confs.>
25

> <canonical_smiles>
O=C(C1=CN=C(NC2=NC=NC3=C2C=C(OC)C(OCCCN4CCOCC4)=C3)S1)NC5=CC=CC=C5

> <standard_relation>
=

> <Publication_ID>
nan

> <predicted_activity_value>
7.568636235841013

> <actual_activity_value>
7.376750709602099

> <Compound>
13

> <standard_units>
nM

> hash
14816628238382353164

$$$$
12
XXILIB    08252103493D 0   0.00000     0.00000

 37 41  0     1  0            999 V2000
   -6.1269   -2.3861    0.8727 S   0  0  0  0  0  2           0  0  0
    1.3659   -0.0000   -0.0000 O   0  0  0  0  0  2           0  0  0
    0.2196   -0.0024    2.3371 O   0  0  0  0  0  2           0  0  0
   -8.6649   -4.5717    2.9096 O   0  0  0  0  0  2           0  0  0
    4.7764    3.5305   -4.6629 O   0  0  0  0  0  2           0  0  0
   -6.4302   -0.9049    2.9456 N   0  0  0  0  0  3           0  0  0
   -4.9324   -0.0242   -1.0125 N   0  0  0  0  0  3           0  0  0
   -2.8758   -0.0236   -2.2436 N   0  0  0  0  0  3           0  0  0
   -4.9476    0.0220    1.3725 N   0  0  0  0  0  3           0  0  0
   -7.6839   -4.9375    0.8568 N   0  0  0  0  0  3           0  0  0
    3.9945    1.1685   -3.2644 N   0  0  2  0  0  3           0  0  0
   -5.7876   -0.9530    1.7938 C   0  0  0  0  0  4           0  0  0
   -7.1871   -2.9483    2.0910 C   0  0  0  0  0  4           0  0  0
    0.0000    0.0000    0.0000 C   0  0  0  0  0  4           0  0  0
   -0.6156   -0.0000    1.2556 C   0  0  0  0  0  4           0  0  0
   -4.2125   -0.0383   -2.1425 C   0  0  0  0  0  4           0  0  0
   -4.2388    0.0212    0.1525 C   0  0  0  0  0  4           0  0  0
   -2.1858   -0.0060   -1.0954 C   0  0  0  0  0  4           0  0  0
   -7.2180   -2.0246    3.1144 C   0  0  0  0  0  4           0  0  0
   -8.2190   -6.1807    0.4699 C   0  0  0  0  0  4           0  0  0
   -2.8194    0.0078    0.1619 C   0  0  0  0  0  4           0  0  0
   -0.7937   -0.0075   -1.1541 C   0  0  0  0  0  4           0  0  0
   -2.0130    0.0014    1.3293 C   0  0  0  0  0  4           0  0  0
   -9.1233   -6.8886    1.2709 C   0  0  0  0  0  4           0  0  0
   -7.8242   -6.7143   -0.7624 C   0  0  0  0  0  4           0  0  0
   -9.6248   -8.1185    0.8391 C   0  0  0  0  0  4           0  0  0
   -8.3283   -7.9440   -1.1890 C   0  0  0  0  0  4           0  0  0
   -9.2278   -8.6461   -0.3887 C   0  0  0  0  0  4           0  0  0
   -7.9096   -4.2001    2.0111 C   0  0  0  0  0  4           0  0  0
    1.9812    0.0000   -1.2882 C   0  0  0  0  0  4           0  0  0
    4.4793    2.3304   -5.3755 C   0  0  0  0  0  4           0  0  0
    3.9957    3.6184   -3.4714 C   0  0  0  0  0  4           0  0  0
   -0.4267   -0.0023    3.6083 C   0  0  0  0  0  4           0  0  0
    4.7772    1.1107   -4.5090 C   0  0  0  0  0  4           0  0  0
    4.2793    2.4288   -2.5579 C   0  0  0  0  0  4           0  0  0
    4.2803    0.0000   -2.4275 C   0  0  0  0  0  4           0  0  0
    3.4948   -0.0000   -1.1130 C   0  0  0  0  0  4           0  0  0
  1 12  1  0     0  0
  1 13  1  0     0  0
  2 14  1  0     0  0
  2 30  1  0     0  0
  3 15  1  0     0  0
  3 33  1  0     0  0
  4 29  2  0     0  0
  5 31  1  0     0  0
  5 32  1  0     0  0
  6 12  2  0     0  0
  6 19  1  0     0  0
  7 16  1  0     0  0
  7 17  2  0     0  0
  8 16  2  0     0  0
  8 18  1  0     0  0
  9 12  1  0     0  0
  9 17  1  0     0  0
 10 20  1  0     0  0
 10 29  1  0     0  0
 11 34  1  0     0  0
 11 35  1  0     0  0
 11 36  1  0     0  0
 13 19  2  0     0  0
 13 29  1  0     0  0
 14 15  1  0     0  0
 14 22  2  0     0  0
 15 23  2  0     0  0
 17 21  1  0     0  0
 18 21  2  0     0  0
 18 22  1  0     0  0
 20 24  2  0     0  0
 20 25  1  0     0  0
 21 23  1  0     0  0
 24 26  1  0     0  0
 25 27  2  0     0  0
 26 28  2  0     0  0
 27 28  1  0     0  0
 30 37  1  0     0  0
 31 34  1  0     0  0
 32 35  1  0     0  0
 36 37  1  0     0  0
M  END
> <standard_type>
pIC50

> <# Confs.>
25

> <canonical_smiles>
O=C(C1=CN=C(NC2=NC=NC3=C2C=C(OC)C(OCCCN4CCOCC4)=C3)S1)NC5=CC=CC=C5

> <standard_relation>
=

> <Publication_ID>
nan

> <predicted_activity_value>
7.568636235841013

> <actual_activity_value>
7.376750709602099

> <Compound>
13

> <standard_units>
nM

> hash
14816628238382353164

$$$$
12
XXILIB    08252103493D 0   0.00000     0.00000

 37 41  0     1  0            999 V2000
   -6.8098    1.8818    0.6563 S   0  0  0  0  0  2           0  0  0
    1.3659   -0.0000   -0.0000 O   0  0  0  0  0  2           0  0  0
    0.2196   -0.0024    2.3371 O   0  0  0  0  0  2           0  0  0
  -10.4391    2.6319    1.9342 O   0  0  0  0  0  2           0  0  0
    4.7764    3.5305   -4.6629 O   0  0  0  0  0  2           0  0  0
   -7.0353    0.0660    2.4549 N   0  0  0  0  0  3           0  0  0
   -4.9324   -0.0242   -1.0125 N   0  0  0  0  0  3           0  0  0
   -2.8758   -0.0236   -2.2436 N   0  0  0  0  0  3           0  0  0
   -4.9476    0.0220    1.3725 N   0  0  0  0  0  3           0  0  0
   -9.1843    3.6617    0.2986 N   0  0  0  0  0  3           0  0  0
    3.9945    1.1685   -3.2644 N   0  0  2  0  0  3           0  0  0
   -6.1855    0.5372    1.5617 C   0  0  0  0  0  4           0  0  0
   -8.2835    1.8121    1.5212 C   0  0  0  0  0  4           0  0  0
    0.0000    0.0000   -0.0000 C   0  0  0  0  0  4           0  0  0
   -0.6156   -0.0000    1.2556 C   0  0  0  0  0  4           0  0  0
   -4.2125   -0.0383   -2.1425 C   0  0  0  0  0  4           0  0  0
   -4.2388    0.0212    0.1525 C   0  0  0  0  0  4           0  0  0
   -2.1858   -0.0060   -1.0954 C   0  0  0  0  0  4           0  0  0
   -8.2145    0.7815    2.4347 C   0  0  0  0  0  4           0  0  0
  -10.0461    4.6716   -0.1693 C   0  0  0  0  0  4           0  0  0
   -2.8194    0.0078    0.1619 C   0  0  0  0  0  4           0  0  0
   -0.7937   -0.0075   -1.1541 C   0  0  0  0  0  4           0  0  0
   -2.0130    0.0014    1.3293 C   0  0  0  0  0  4           0  0  0
  -11.3313    4.8608    0.3533 C   0  0  0  0  0  4           0  0  0
   -9.5870    5.5089   -1.1927 C   0  0  0  0  0  4           0  0  0
  -12.1459    5.8791   -0.1468 C   0  0  0  0  0  4           0  0  0
  -10.4055    6.5249   -1.6890 C   0  0  0  0  0  4           0  0  0
  -11.6844    6.7098   -1.1667 C   0  0  0  0  0  4           0  0  0
   -9.3926    2.7132    1.2907 C   0  0  0  0  0  4           0  0  0
    1.9812    0.0000   -1.2882 C   0  0  0  0  0  4           0  0  0
    4.4793    2.3304   -5.3755 C   0  0  0  0  0  4           0  0  0
    3.9957    3.6184   -3.4714 C   0  0  0  0  0  4           0  0  0
   -0.4267   -0.0023    3.6083 C   0  0  0  0  0  4           0  0  0
    4.7772    1.1107   -4.5090 C   0  0  0  0  0  4           0  0  0
    4.2793    2.4288   -2.5579 C   0  0  0  0  0  4           0  0  0
    4.2803    0.0000   -2.4275 C   0  0  0  0  0  4           0  0  0
    3.4948   -0.0000   -1.1130 C   0  0  0  0  0  4           0  0  0
  1 12  1  0     0  0
  1 13  1  0     0  0
  2 14  1  0     0  0
  2 30  1  0     0  0
  3 15  1  0     0  0
  3 33  1  0     0  0
  4 29  2  0     0  0
  5 31  1  0     0  0
  5 32  1  0     0  0
  6 12  2  0     0  0
  6 19  1  0     0  0
  7 16  1  0     0  0
  7 17  2  0     0  0
  8 16  2  0     0  0
  8 18  1  0     0  0
  9 12  1  0     0  0
  9 17  1  0     0  0
 10 20  1  0     0  0
 10 29  1  0     0  0
 11 34  1  0     0  0
 11 35  1  0     0  0
 11 36  1  0     0  0
 13 19  2  0     0  0
 13 29  1  0     0  0
 14 15  1  0     0  0
 14 22  2  0     0  0
 15 23  2  0     0  0
 17 21  1  0     0  0
 18 21  2  0     0  0
 18 22  1  0     0  0
 20 24  2  0     0  0
 20 25  1  0     0  0
 21 23  1  0     0  0
 24 26  1  0     0  0
 25 27  2  0     0  0
 26 28  2  0     0  0
 27 28  1  0     0  0
 30 37  1  0     0  0
 31 34  1  0     0  0
 32 35  1  0     0  0
 36 37  1  0     0  0
M  END
> <standard_type>
pIC50

> <# Confs.>
25

> <canonical_smiles>
O=C(C1=CN=C(NC2=NC=NC3=C2C=C(OC)C(OCCCN4CCOCC4)=C3)S1)NC5=CC=CC=C5

> <standard_relation>
=

> <Publication_ID>
nan

> <predicted_activity_value>
7.568636235841013

> <actual_activity_value>
7.376750709602099

> <Compound>
13

> <standard_units>
nM

> hash
14816628238382353164

$$$$
12
XXILIB    08252103493D 0   0.00000     0.00000

 37 41  0     1  0            999 V2000
   -7.0206   -1.4280    0.3529 S   0  0  0  0  0  2           0  0  0
    1.3659   -0.0000   -0.0000 O   0  0  0  0  0  2           0  0  0
    0.2196   -0.0024    2.3371 O   0  0  0  0  0  2           0  0  0
  -10.3683   -2.7350    1.9188 O   0  0  0  0  0  2           0  0  0
    4.7764    3.5305   -4.6629 O   0  0  0  0  0  2           0  0  0
   -6.7744   -0.5347    2.7454 N   0  0  0  0  0  3           0  0  0
   -4.9324   -0.0242   -1.0125 N   0  0  0  0  0  3           0  0  0
   -2.8758   -0.0236   -2.2436 N   0  0  0  0  0  3           0  0  0
   -4.9476    0.0220    1.3725 N   0  0  0  0  0  3           0  0  0
   -9.5237   -2.9605   -0.2133 N   0  0  0  0  0  3           0  0  0
    3.9945    1.1685   -3.2644 N   0  0  2  0  0  3           0  0  0
   -6.1496   -0.5649    1.5832 C   0  0  0  0  0  4           0  0  0
   -8.2888   -1.7625    1.4502 C   0  0  0  0  0  4           0  0  0
    0.0000    0.0000    0.0000 C   0  0  0  0  0  4           0  0  0
   -0.6156   -0.0000    1.2556 C   0  0  0  0  0  4           0  0  0
   -4.2125   -0.0383   -2.1425 C   0  0  0  0  0  4           0  0  0
   -4.2388    0.0212    0.1525 C   0  0  0  0  0  4           0  0  0
   -2.1858   -0.0060   -1.0954 C   0  0  0  0  0  4           0  0  0
   -7.9772   -1.2061    2.6728 C   0  0  0  0  0  4           0  0  0
  -10.5200   -3.7086   -0.8684 C   0  0  0  0  0  4           0  0  0
   -2.8194    0.0078    0.1619 C   0  0  0  0  0  4           0  0  0
   -0.7937   -0.0075   -1.1541 C   0  0  0  0  0  4           0  0  0
   -2.0130    0.0014    1.3293 C   0  0  0  0  0  4           0  0  0
  -11.6866   -4.1318   -0.2199 C   0  0  0  0  0  4           0  0  0
  -10.3233   -4.0320   -2.2160 C   0  0  0  0  0  4           0  0  0
  -12.6443   -4.8716   -0.9171 C   0  0  0  0  0  4           0  0  0
  -11.2836   -4.7718   -2.9079 C   0  0  0  0  0  4           0  0  0
  -12.4433   -5.1918   -2.2589 C   0  0  0  0  0  4           0  0  0
   -9.4754   -2.5141    1.1004 C   0  0  0  0  0  4           0  0  0
    1.9812    0.0000   -1.2882 C   0  0  0  0  0  4           0  0  0
    4.4793    2.3304   -5.3755 C   0  0  0  0  0  4           0  0  0
    3.9957    3.6184   -3.4714 C   0  0  0  0  0  4           0  0  0
   -0.4267   -0.0023    3.6083 C   0  0  0  0  0  4           0  0  0
    4.7772    1.1107   -4.5090 C   0  0  0  0  0  4           0  0  0
    4.2793    2.4288   -2.5579 C   0  0  0  0  0  4           0  0  0
    4.2803    0.0000   -2.4275 C   0  0  0  0  0  4           0  0  0
    3.4948   -0.0000   -1.1130 C   0  0  0  0  0  4           0  0  0
  1 12  1  0     0  0
  1 13  1  0     0  0
  2 14  1  0     0  0
  2 30  1  0     0  0
  3 15  1  0     0  0
  3 33  1  0     0  0
  4 29  2  0     0  0
  5 31  1  0     0  0
  5 32  1  0     0  0
  6 12  2  0     0  0
  6 19  1  0     0  0
  7 16  1  0     0  0
  7 17  2  0     0  0
  8 16  2  0     0  0
  8 18  1  0     0  0
  9 12  1  0     0  0
  9 17  1  0     0  0
 10 20  1  0     0  0
 10 29  1  0     0  0
 11 34  1  0     0  0
 11 35  1  0     0  0
 11 36  1  0     0  0
 13 19  2  0     0  0
 13 29  1  0     0  0
 14 15  1  0     0  0
 14 22  2  0     0  0
 15 23  2  0     0  0
 17 21  1  0     0  0
 18 21  2  0     0  0
 18 22  1  0     0  0
 20 24  2  0     0  0
 20 25  1  0     0  0
 21 23  1  0     0  0
 24 26  1  0     0  0
 25 27  2  0     0  0
 26 28  2  0     0  0
 27 28  1  0     0  0
 30 37  1  0     0  0
 31 34  1  0     0  0
 32 35  1  0     0  0
 36 37  1  0     0  0
M  END
> <standard_type>
pIC50

> <# Confs.>
25

> <canonical_smiles>
O=C(C1=CN=C(NC2=NC=NC3=C2C=C(OC)C(OCCCN4CCOCC4)=C3)S1)NC5=CC=CC=C5

> <standard_relation>
=

> <Publication_ID>
nan

> <predicted_activity_value>
7.568636235841013

> <actual_activity_value>
7.376750709602099

> <Compound>
13

> <standard_units>
nM

> hash
14816628238382353164

$$$$
12
XXILIB    08252103493D 0   0.00000     0.00000

 37 41  0     1  0            999 V2000
   -6.8098    1.8818    0.6563 S   0  0  0  0  0  2           0  0  0
    1.3659    0.0000    0.0000 O   0  0  0  0  0  2           0  0  0
    0.2196   -0.0024    2.3371 O   0  0  0  0  0  2           0  0  0
  -10.4391    2.6319    1.9342 O   0  0  0  0  0  2           0  0  0
    3.0544    5.8530   -2.9547 O   0  0  0  0  0  2           0  0  0
   -7.0353    0.0660    2.4549 N   0  0  0  0  0  3           0  0  0
   -4.9324   -0.0242   -1.0125 N   0  0  0  0  0  3           0  0  0
   -2.8758   -0.0236   -2.2436 N   0  0  0  0  0  3           0  0  0
   -4.9476    0.0220    1.3725 N   0  0  0  0  0  3           0  0  0
   -9.1843    3.6617    0.2986 N   0  0  0  0  0  3           0  0  0
    3.3507    3.0802   -2.3461 N   0  0  2  0  0  3           0  0  0
   -6.1855    0.5372    1.5617 C   0  0  0  0  0  4           0  0  0
   -8.2835    1.8121    1.5212 C   0  0  0  0  0  4           0  0  0
    0.0000    0.0000   -0.0000 C   0  0  0  0  0  4           0  0  0
   -0.6156   -0.0000    1.2556 C   0  0  0  0  0  4           0  0  0
   -4.2125   -0.0383   -2.1425 C   0  0  0  0  0  4           0  0  0
   -4.2388    0.0212    0.1525 C   0  0  0  0  0  4           0  0  0
   -2.1858   -0.0060   -1.0954 C   0  0  0  0  0  4           0  0  0
   -8.2145    0.7815    2.4347 C   0  0  0  0  0  4           0  0  0
  -10.0461    4.6716   -0.1693 C   0  0  0  0  0  4           0  0  0
   -2.8194    0.0078    0.1619 C   0  0  0  0  0  4           0  0  0
   -0.7937   -0.0075   -1.1541 C   0  0  0  0  0  4           0  0  0
   -2.0130    0.0014    1.3293 C   0  0  0  0  0  4           0  0  0
  -11.3313    4.8608    0.3533 C   0  0  0  0  0  4           0  0  0
   -9.5870    5.5089   -1.1927 C   0  0  0  0  0  4           0  0  0
  -12.1459    5.8791   -0.1468 C   0  0  0  0  0  4           0  0  0
  -10.4055    6.5249   -1.6890 C   0  0  0  0  0  4           0  0  0
  -11.6844    6.7098   -1.1667 C   0  0  0  0  0  4           0  0  0
   -9.3926    2.7132    1.2907 C   0  0  0  0  0  4           0  0  0
    1.9812    0.6441   -1.1156 C   0  0  0  0  0  4           0  0  0
    3.3683    4.9143   -3.9825 C   0  0  0  0  0  4           0  0  0
    2.2571    5.2444   -1.9393 C   0  0  0  0  0  4           0  0  0
   -0.4267   -0.0023    3.6083 C   0  0  0  0  0  4           0  0  0
    4.1389    3.7315   -3.4043 C   0  0  0  0  0  4           0  0  0
    2.9989    4.0673   -1.3115 C   0  0  0  0  0  4           0  0  0
    4.0888    1.9452   -1.7856 C   0  0  0  0  0  4           0  0  0
    3.3205    1.2222   -0.6757 C   0  0  0  0  0  4           0  0  0
  1 12  1  0     0  0
  1 13  1  0     0  0
  2 14  1  0     0  0
  2 30  1  0     0  0
  3 15  1  0     0  0
  3 33  1  0     0  0
  4 29  2  0     0  0
  5 31  1  0     0  0
  5 32  1  0     0  0
  6 12  2  0     0  0
  6 19  1  0     0  0
  7 16  1  0     0  0
  7 17  2  0     0  0
  8 16  2  0     0  0
  8 18  1  0     0  0
  9 12  1  0     0  0
  9 17  1  0     0  0
 10 20  1  0     0  0
 10 29  1  0     0  0
 11 34  1  0     0  0
 11 35  1  0     0  0
 11 36  1  0     0  0
 13 19  2  0     0  0
 13 29  1  0     0  0
 14 15  1  0     0  0
 14 22  2  0     0  0
 15 23  2  0     0  0
 17 21  1  0     0  0
 18 21  2  0     0  0
 18 22  1  0     0  0
 20 24  2  0     0  0
 20 25  1  0     0  0
 21 23  1  0     0  0
 24 26  1  0     0  0
 25 27  2  0     0  0
 26 28  2  0     0  0
 27 28  1  0     0  0
 30 37  1  0     0  0
 31 34  1  0     0  0
 32 35  1  0     0  0
 36 37  1  0     0  0
M  END
> <standard_type>
pIC50

> <# Confs.>
25

> <canonical_smiles>
O=C(C1=CN=C(NC2=NC=NC3=C2C=C(OC)C(OCCCN4CCOCC4)=C3)S1)NC5=CC=CC=C5

> <standard_relation>
=

> <Publication_ID>
nan

> <predicted_activity_value>
7.568636235841013

> <actual_activity_value>
7.376750709602099

> <Compound>
13

> <standard_units>
nM

> hash
14816628238382353164

$$$$
12
XXILIB    08252103493D 0   0.00000     0.00000

 37 41  0     1  0            999 V2000
   -6.8098    1.8818    0.6563 S   0  0  0  0  0  2           0  0  0
    1.3659   -0.0000    0.0000 O   0  0  0  0  0  2           0  0  0
    0.2196   -0.0024    2.3371 O   0  0  0  0  0  2           0  0  0
  -10.4391    2.6319    1.9342 O   0  0  0  0  0  2           0  0  0
    7.8752   -1.1383    1.3819 O   0  0  0  0  0  2           0  0  0
   -7.0353    0.0660    2.4549 N   0  0  0  0  0  3           0  0  0
   -4.9324   -0.0242   -1.0125 N   0  0  0  0  0  3           0  0  0
   -2.8758   -0.0236   -2.2436 N   0  0  0  0  0  3           0  0  0
   -4.9476    0.0220    1.3725 N   0  0  0  0  0  3           0  0  0
   -9.1843    3.6617    0.2986 N   0  0  0  0  0  3           0  0  0
    5.4967   -1.1804   -0.1952 N   0  0  2  0  0  3           0  0  0
   -6.1855    0.5372    1.5617 C   0  0  0  0  0  4           0  0  0
   -8.2835    1.8121    1.5212 C   0  0  0  0  0  4           0  0  0
    0.0000    0.0000   -0.0000 C   0  0  0  0  0  4           0  0  0
   -0.6156   -0.0000    1.2556 C   0  0  0  0  0  4           0  0  0
   -4.2125   -0.0383   -2.1425 C   0  0  0  0  0  4           0  0  0
   -4.2388    0.0212    0.1525 C   0  0  0  0  0  4           0  0  0
   -2.1858   -0.0060   -1.0954 C   0  0  0  0  0  4           0  0  0
   -8.2145    0.7815    2.4347 C   0  0  0  0  0  4           0  0  0
  -10.0461    4.6716   -0.1693 C   0  0  0  0  0  4           0  0  0
   -2.8194    0.0078    0.1619 C   0  0  0  0  0  4           0  0  0
   -0.7937   -0.0075   -1.1541 C   0  0  0  0  0  4           0  0  0
   -2.0130    0.0014    1.3293 C   0  0  0  0  0  4           0  0  0
  -11.3313    4.8608    0.3533 C   0  0  0  0  0  4           0  0  0
   -9.5870    5.5089   -1.1927 C   0  0  0  0  0  4           0  0  0
  -12.1459    5.8791   -0.1468 C   0  0  0  0  0  4           0  0  0
  -10.4055    6.5249   -1.6890 C   0  0  0  0  0  4           0  0  0
  -11.6844    6.7098   -1.1667 C   0  0  0  0  0  4           0  0  0
   -9.3926    2.7132    1.2907 C   0  0  0  0  0  4           0  0  0
    1.9812    0.0000   -1.2882 C   0  0  0  0  0  4           0  0  0
    7.4744   -2.3291    0.7054 C   0  0  0  0  0  4           0  0  0
    7.4677    0.0195    0.6536 C   0  0  0  0  0  4           0  0  0
   -0.4267   -0.0023    3.6083 C   0  0  0  0  0  4           0  0  0
    5.9576   -2.3647    0.5464 C   0  0  0  0  0  4           0  0  0
    5.9502    0.0413    0.4906 C   0  0  0  0  0  4           0  0  0
    4.0395   -1.2091   -0.3473 C   0  0  0  0  0  4           0  0  0
    3.4948   -0.0000   -1.1130 C   0  0  0  0  0  4           0  0  0
  1 12  1  0     0  0
  1 13  1  0     0  0
  2 14  1  0     0  0
  2 30  1  0     0  0
  3 15  1  0     0  0
  3 33  1  0     0  0
  4 29  2  0     0  0
  5 31  1  0     0  0
  5 32  1  0     0  0
  6 12  2  0     0  0
  6 19  1  0     0  0
  7 16  1  0     0  0
  7 17  2  0     0  0
  8 16  2  0     0  0
  8 18  1  0     0  0
  9 12  1  0     0  0
  9 17  1  0     0  0
 10 20  1  0     0  0
 10 29  1  0     0  0
 11 34  1  0     0  0
 11 35  1  0     0  0
 11 36  1  0     0  0
 13 19  2  0     0  0
 13 29  1  0     0  0
 14 15  1  0     0  0
 14 22  2  0     0  0
 15 23  2  0     0  0
 17 21  1  0     0  0
 18 21  2  0     0  0
 18 22  1  0     0  0
 20 24  2  0     0  0
 20 25  1  0     0  0
 21 23  1  0     0  0
 24 26  1  0     0  0
 25 27  2  0     0  0
 26 28  2  0     0  0
 27 28  1  0     0  0
 30 37  1  0     0  0
 31 34  1  0     0  0
 32 35  1  0     0  0
 36 37  1  0     0  0
M  END
> <standard_type>
pIC50

> <# Confs.>
25

> <canonical_smiles>
O=C(C1=CN=C(NC2=NC=NC3=C2C=C(OC)C(OCCCN4CCOCC4)=C3)S1)NC5=CC=CC=C5

> <standard_relation>
=

> <Publication_ID>
nan

> <predicted_activity_value>
7.568636235841013

> <actual_activity_value>
7.376750709602099

> <Compound>
13

> <standard_units>
nM

> hash
14816628238382353164

$$$$
12
XXILIB    08252103493D 0   0.00000     0.00000

 37 41  0     1  0            999 V2000
   -6.8098    1.8818    0.6563 S   0  0  0  0  0  2           0  0  0
    1.3659    0.0000   -0.0000 O   0  0  0  0  0  2           0  0  0
    0.2196   -0.0024    2.3371 O   0  0  0  0  0  2           0  0  0
  -10.4391    2.6319    1.9342 O   0  0  0  0  0  2           0  0  0
    6.2402    0.2035   -4.6945 O   0  0  0  0  0  2           0  0  0
   -7.0353    0.0660    2.4549 N   0  0  0  0  0  3           0  0  0
   -4.9324   -0.0242   -1.0125 N   0  0  0  0  0  3           0  0  0
   -2.8758   -0.0236   -2.2436 N   0  0  0  0  0  3           0  0  0
   -4.9476    0.0220    1.3725 N   0  0  0  0  0  3           0  0  0
   -9.1843    3.6617    0.2986 N   0  0  0  0  0  3           0  0  0
    4.4051   -1.0758   -2.9219 N   0  0  2  0  0  3           0  0  0
   -6.1855    0.5372    1.5617 C   0  0  0  0  0  4           0  0  0
   -8.2835    1.8121    1.5212 C   0  0  0  0  0  4           0  0  0
    0.0000    0.0000   -0.0000 C   0  0  0  0  0  4           0  0  0
   -0.6156   -0.0000    1.2556 C   0  0  0  0  0  4           0  0  0
   -4.2125   -0.0383   -2.1425 C   0  0  0  0  0  4           0  0  0
   -4.2388    0.0212    0.1525 C   0  0  0  0  0  4           0  0  0
   -2.1858   -0.0060   -1.0954 C   0  0  0  0  0  4           0  0  0
   -8.2145    0.7815    2.4347 C   0  0  0  0  0  4           0  0  0
  -10.0461    4.6716   -0.1693 C   0  0  0  0  0  4           0  0  0
   -2.8194    0.0078    0.1619 C   0  0  0  0  0  4           0  0  0
   -0.7937   -0.0075   -1.1541 C   0  0  0  0  0  4           0  0  0
   -2.0130    0.0014    1.3293 C   0  0  0  0  0  4           0  0  0
  -11.3313    4.8608    0.3533 C   0  0  0  0  0  4           0  0  0
   -9.5870    5.5089   -1.1927 C   0  0  0  0  0  4           0  0  0
  -12.1459    5.8791   -0.1468 C   0  0  0  0  0  4           0  0  0
  -10.4055    6.5249   -1.6890 C   0  0  0  0  0  4           0  0  0
  -11.6844    6.7098   -1.1667 C   0  0  0  0  0  4           0  0  0
   -9.3926    2.7132    1.2907 C   0  0  0  0  0  4           0  0  0
    1.9812   -0.6441   -1.1156 C   0  0  0  0  0  4           0  0  0
    5.4712   -0.9165   -5.1310 C   0  0  0  0  0  4           0  0  0
    5.5222    0.9629   -3.7225 C   0  0  0  0  0  4           0  0  0
   -0.4267   -0.0023    3.6083 C   0  0  0  0  0  4           0  0  0
    5.1411   -1.8261   -3.9516 C   0  0  0  0  0  4           0  0  0
    5.1906    0.0992   -2.5084 C   0  0  0  0  0  4           0  0  0
    4.0888   -1.9452   -1.7856 C   0  0  0  0  0  4           0  0  0
    3.3205   -1.2222   -0.6757 C   0  0  0  0  0  4           0  0  0
  1 12  1  0     0  0
  1 13  1  0     0  0
  2 14  1  0     0  0
  2 30  1  0     0  0
  3 15  1  0     0  0
  3 33  1  0     0  0
  4 29  2  0     0  0
  5 31  1  0     0  0
  5 32  1  0     0  0
  6 12  2  0     0  0
  6 19  1  0     0  0
  7 16  1  0     0  0
  7 17  2  0     0  0
  8 16  2  0     0  0
  8 18  1  0     0  0
  9 12  1  0     0  0
  9 17  1  0     0  0
 10 20  1  0     0  0
 10 29  1  0     0  0
 11 34  1  0     0  0
 11 35  1  0     0  0
 11 36  1  0     0  0
 13 19  2  0     0  0
 13 29  1  0     0  0
 14 15  1  0     0  0
 14 22  2  0     0  0
 15 23  2  0     0  0
 17 21  1  0     0  0
 18 21  2  0     0  0
 18 22  1  0     0  0
 20 24  2  0     0  0
 20 25  1  0     0  0
 21 23  1  0     0  0
 24 26  1  0     0  0
 25 27  2  0     0  0
 26 28  2  0     0  0
 27 28  1  0     0  0
 30 37  1  0     0  0
 31 34  1  0     0  0
 32 35  1  0     0  0
 36 37  1  0     0  0
M  END
> <standard_type>
pIC50

> <# Confs.>
25

> <canonical_smiles>
O=C(C1=CN=C(NC2=NC=NC3=C2C=C(OC)C(OCCCN4CCOCC4)=C3)S1)NC5=CC=CC=C5

> <standard_relation>
=

> <Publication_ID>
nan

> <predicted_activity_value>
7.568636235841013

> <actual_activity_value>
7.376750709602099

> <Compound>
13

> <standard_units>
nM

> hash
14816628238382353164

$$$$
12
XXILIB    08252103493D 0   0.00000     0.00000

 37 41  0     1  0            999 V2000
   -6.8098    1.8818    0.6563 S   0  0  0  0  0  2           0  0  0
    1.3659   -0.0000   -0.0000 O   0  0  0  0  0  2           0  0  0
    0.2196   -0.0024    2.3371 O   0  0  0  0  0  2           0  0  0
  -10.4391    2.6319    1.9342 O   0  0  0  0  0  2           0  0  0
    4.7737   -3.5387   -4.6506 O   0  0  0  0  0  2           0  0  0
   -7.0353    0.0660    2.4549 N   0  0  0  0  0  3           0  0  0
   -4.9324   -0.0242   -1.0125 N   0  0  0  0  0  3           0  0  0
   -2.8758   -0.0236   -2.2436 N   0  0  0  0  0  3           0  0  0
   -4.9476    0.0220    1.3725 N   0  0  0  0  0  3           0  0  0
   -9.1843    3.6617    0.2986 N   0  0  0  0  0  3           0  0  0
    3.9945   -1.1685   -3.2644 N   0  0  2  0  0  3           0  0  0
   -6.1855    0.5372    1.5617 C   0  0  0  0  0  4           0  0  0
   -8.2835    1.8121    1.5212 C   0  0  0  0  0  4           0  0  0
    0.0000    0.0000   -0.0000 C   0  0  0  0  0  4           0  0  0
   -0.6156   -0.0000    1.2556 C   0  0  0  0  0  4           0  0  0
   -4.2125   -0.0383   -2.1425 C   0  0  0  0  0  4           0  0  0
   -4.2388    0.0212    0.1525 C   0  0  0  0  0  4           0  0  0
   -2.1858   -0.0060   -1.0954 C   0  0  0  0  0  4           0  0  0
   -8.2145    0.7815    2.4347 C   0  0  0  0  0  4           0  0  0
  -10.0461    4.6716   -0.1693 C   0  0  0  0  0  4           0  0  0
   -2.8194    0.0078    0.1619 C   0  0  0  0  0  4           0  0  0
   -0.7937   -0.0075   -1.1541 C   0  0  0  0  0  4           0  0  0
   -2.0130    0.0014    1.3293 C   0  0  0  0  0  4           0  0  0
  -11.3313    4.8608    0.3533 C   0  0  0  0  0  4           0  0  0
   -9.5870    5.5089   -1.1927 C   0  0  0  0  0  4           0  0  0
  -12.1459    5.8791   -0.1468 C   0  0  0  0  0  4           0  0  0
  -10.4055    6.5249   -1.6890 C   0  0  0  0  0  4           0  0  0
  -11.6844    6.7098   -1.1667 C   0  0  0  0  0  4           0  0  0
   -9.3926    2.7132    1.2907 C   0  0  0  0  0  4           0  0  0
    1.9812    0.0000   -1.2882 C   0  0  0  0  0  4           0  0  0
    4.0457   -3.6206   -3.4260 C   0  0  0  0  0  4           0  0  0
    4.4187   -2.3600   -5.3729 C   0  0  0  0  0  4           0  0  0
   -0.4267   -0.0023    3.6083 C   0  0  0  0  0  4           0  0  0
    4.3415   -2.4072   -2.5501 C   0  0  0  0  0  4           0  0  0
    4.7211   -1.1143   -4.5442 C   0  0  0  0  0  4           0  0  0
    4.2803    0.0000   -2.4275 C   0  0  0  0  0  4           0  0  0
    3.4948   -0.0000   -1.1130 C   0  0  0  0  0  4           0  0  0
  1 12  1  0     0  0
  1 13  1  0     0  0
  2 14  1  0     0  0
  2 30  1  0     0  0
  3 15  1  0     0  0
  3 33  1  0     0  0
  4 29  2  0     0  0
  5 31  1  0     0  0
  5 32  1  0     0  0
  6 12  2  0     0  0
  6 19  1  0     0  0
  7 16  1  0     0  0
  7 17  2  0     0  0
  8 16  2  0     0  0
  8 18  1  0     0  0
  9 12  1  0     0  0
  9 17  1  0     0  0
 10 20  1  0     0  0
 10 29  1  0     0  0
 11 34  1  0     0  0
 11 35  1  0     0  0
 11 36  1  0     0  0
 13 19  2  0     0  0
 13 29  1  0     0  0
 14 15  1  0     0  0
 14 22  2  0     0  0
 15 23  2  0     0  0
 17 21  1  0     0  0
 18 21  2  0     0  0
 18 22  1  0     0  0
 20 24  2  0     0  0
 20 25  1  0     0  0
 21 23  1  0     0  0
 24 26  1  0     0  0
 25 27  2  0     0  0
 26 28  2  0     0  0
 27 28  1  0     0  0
 30 37  1  0     0  0
 31 34  1  0     0  0
 32 35  1  0     0  0
 36 37  1  0     0  0
M  END
> <standard_type>
pIC50

> <# Confs.>
25

> <canonical_smiles>
O=C(C1=CN=C(NC2=NC=NC3=C2C=C(OC)C(OCCCN4CCOCC4)=C3)S1)NC5=CC=CC=C5

> <standard_relation>
=

> <Publication_ID>
nan

> <predicted_activity_value>
7.568636235841013

> <actual_activity_value>
7.376750709602099

> <Compound>
13

> <standard_units>
nM

> hash
14816628238382353164

$$$$
12
XXILIB    08252103493D 0   0.00000     0.00000

 37 41  0     1  0            999 V2000
   -6.1269   -2.3861    0.8727 S   0  0  0  0  0  2           0  0  0
    1.3659   -0.0000    0.0000 O   0  0  0  0  0  2           0  0  0
    0.2196   -0.0024    2.3371 O   0  0  0  0  0  2           0  0  0
   -8.6649   -4.5717    2.9096 O   0  0  0  0  0  2           0  0  0
    4.4943   -4.9468   -2.2261 O   0  0  0  0  0  2           0  0  0
   -6.4302   -0.9049    2.9456 N   0  0  0  0  0  3           0  0  0
   -4.9324   -0.0242   -1.0125 N   0  0  0  0  0  3           0  0  0
   -2.8758   -0.0236   -2.2436 N   0  0  0  0  0  3           0  0  0
   -4.9476    0.0220    1.3725 N   0  0  0  0  0  3           0  0  0
   -7.6839   -4.9375    0.8568 N   0  0  0  0  0  3           0  0  0
    3.7324   -2.4848   -0.9996 N   0  0  2  0  0  3           0  0  0
   -5.7876   -0.9530    1.7938 C   0  0  0  0  0  4           0  0  0
   -7.1871   -2.9483    2.0910 C   0  0  0  0  0  4           0  0  0
    0.0000    0.0000    0.0000 C   0  0  0  0  0  4           0  0  0
   -0.6156   -0.0000    1.2556 C   0  0  0  0  0  4           0  0  0
   -4.2125   -0.0383   -2.1425 C   0  0  0  0  0  4           0  0  0
   -4.2388    0.0212    0.1525 C   0  0  0  0  0  4           0  0  0
   -2.1858   -0.0060   -1.0954 C   0  0  0  0  0  4           0  0  0
   -7.2180   -2.0246    3.1144 C   0  0  0  0  0  4           0  0  0
   -8.2190   -6.1807    0.4699 C   0  0  0  0  0  4           0  0  0
   -2.8194    0.0078    0.1619 C   0  0  0  0  0  4           0  0  0
   -0.7937   -0.0075   -1.1541 C   0  0  0  0  0  4           0  0  0
   -2.0130    0.0014    1.3293 C   0  0  0  0  0  4           0  0  0
   -9.1233   -6.8886    1.2709 C   0  0  0  0  0  4           0  0  0
   -7.8242   -6.7143   -0.7624 C   0  0  0  0  0  4           0  0  0
   -9.6248   -8.1185    0.8391 C   0  0  0  0  0  4           0  0  0
   -8.3283   -7.9440   -1.1890 C   0  0  0  0  0  4           0  0  0
   -9.2278   -8.6461   -0.3887 C   0  0  0  0  0  4           0  0  0
   -7.9096   -4.2001    2.0111 C   0  0  0  0  0  4           0  0  0
    1.9812    0.0000   -1.2882 C   0  0  0  0  0  4           0  0  0
    3.9615   -4.9302   -0.9025 C   0  0  0  0  0  4           0  0  0
    3.9420   -3.8879   -3.0077 C   0  0  0  0  0  4           0  0  0
   -0.4267   -0.0023    3.6083 C   0  0  0  0  0  4           0  0  0
    4.2805   -3.6046   -0.2181 C   0  0  0  0  0  4           0  0  0
    4.2580   -2.5356   -2.3743 C   0  0  0  0  0  4           0  0  0
    4.0395   -1.2091   -0.3473 C   0  0  0  0  0  4           0  0  0
    3.4948   -0.0000   -1.1130 C   0  0  0  0  0  4           0  0  0
  1 12  1  0     0  0
  1 13  1  0     0  0
  2 14  1  0     0  0
  2 30  1  0     0  0
  3 15  1  0     0  0
  3 33  1  0     0  0
  4 29  2  0     0  0
  5 31  1  0     0  0
  5 32  1  0     0  0
  6 12  2  0     0  0
  6 19  1  0     0  0
  7 16  1  0     0  0
  7 17  2  0     0  0
  8 16  2  0     0  0
  8 18  1  0     0  0
  9 12  1  0     0  0
  9 17  1  0     0  0
 10 20  1  0     0  0
 10 29  1  0     0  0
 11 34  1  0     0  0
 11 35  1  0     0  0
 11 36  1  0     0  0
 13 19  2  0     0  0
 13 29  1  0     0  0
 14 15  1  0     0  0
 14 22  2  0     0  0
 15 23  2  0     0  0
 17 21  1  0     0  0
 18 21  2  0     0  0
 18 22  1  0     0  0
 20 24  2  0     0  0
 20 25  1  0     0  0
 21 23  1  0     0  0
 24 26  1  0     0  0
 25 27  2  0     0  0
 26 28  2  0     0  0
 27 28  1  0     0  0
 30 37  1  0     0  0
 31 34  1  0     0  0
 32 35  1  0     0  0
 36 37  1  0     0  0
M  END
> <standard_type>
pIC50

> <# Confs.>
25

> <canonical_smiles>
O=C(C1=CN=C(NC2=NC=NC3=C2C=C(OC)C(OCCCN4CCOCC4)=C3)S1)NC5=CC=CC=C5

> <standard_relation>
=

> <Publication_ID>
nan

> <predicted_activity_value>
7.568636235841013

> <actual_activity_value>
7.376750709602099

> <Compound>
13

> <standard_units>
nM

> hash
14816628238382353164

$$$$
12
XXILIB    08252103493D 0   0.00000     0.00000

 37 41  0     1  0            999 V2000
   -6.2807    2.3267    0.7804 S   0  0  0  0  0  2           0  0  0
    1.3659   -0.0000    0.0000 O   0  0  0  0  0  2           0  0  0
    0.2196   -0.0024    2.3371 O   0  0  0  0  0  2           0  0  0
   -8.9362    4.4365    2.7463 O   0  0  0  0  0  2           0  0  0
    4.4943   -4.9468   -2.2261 O   0  0  0  0  0  2           0  0  0
   -6.4868    0.9131    2.9115 N   0  0  0  0  0  3           0  0  0
   -4.9324   -0.0242   -1.0125 N   0  0  0  0  0  3           0  0  0
   -2.8758   -0.0236   -2.2436 N   0  0  0  0  0  3           0  0  0
   -4.9476    0.0220    1.3725 N   0  0  0  0  0  3           0  0  0
   -7.9907    4.7759    0.6724 N   0  0  0  0  0  3           0  0  0
    3.7324   -2.4848   -0.9996 N   0  0  2  0  0  3           0  0  0
   -5.8499    0.9559    1.7564 C   0  0  0  0  0  4           0  0  0
   -7.3671    2.8730    1.9828 C   0  0  0  0  0  4           0  0  0
    0.0000    0.0000   -0.0000 C   0  0  0  0  0  4           0  0  0
   -0.6156   -0.0000    1.2556 C   0  0  0  0  0  4           0  0  0
   -4.2125   -0.0383   -2.1425 C   0  0  0  0  0  4           0  0  0
   -4.2388    0.0212    0.1525 C   0  0  0  0  0  4           0  0  0
   -2.1858   -0.0060   -1.0954 C   0  0  0  0  0  4           0  0  0
   -7.3392    1.9899    3.0415 C   0  0  0  0  0  4           0  0  0
   -8.6039    5.9665    0.2386 C   0  0  0  0  0  4           0  0  0
   -2.8194    0.0078    0.1619 C   0  0  0  0  0  4           0  0  0
   -0.7937   -0.0075   -1.1541 C   0  0  0  0  0  4           0  0  0
   -2.0130    0.0014    1.3293 C   0  0  0  0  0  4           0  0  0
   -9.5461    6.6501    1.0168 C   0  0  0  0  0  4           0  0  0
   -8.2478    6.4727   -1.0168 C   0  0  0  0  0  4           0  0  0
  -10.1241    7.8284    0.5390 C   0  0  0  0  0  4           0  0  0
   -8.8287    7.6506   -1.4895 C   0  0  0  0  0  4           0  0  0
   -9.7666    8.3279   -0.7124 C   0  0  0  0  0  4           0  0  0
   -8.1640    4.0749    1.8581 C   0  0  0  0  0  4           0  0  0
    1.9812    0.0000   -1.2882 C   0  0  0  0  0  4           0  0  0
    3.9615   -4.9302   -0.9025 C   0  0  0  0  0  4           0  0  0
    3.9420   -3.8879   -3.0077 C   0  0  0  0  0  4           0  0  0
   -0.4267   -0.0023    3.6083 C   0  0  0  0  0  4           0  0  0
    4.2805   -3.6046   -0.2181 C   0  0  0  0  0  4           0  0  0
    4.2580   -2.5356   -2.3743 C   0  0  0  0  0  4           0  0  0
    4.0395   -1.2091   -0.3473 C   0  0  0  0  0  4           0  0  0
    3.4948   -0.0000   -1.1130 C   0  0  0  0  0  4           0  0  0
  1 12  1  0     0  0
  1 13  1  0     0  0
  2 14  1  0     0  0
  2 30  1  0     0  0
  3 15  1  0     0  0
  3 33  1  0     0  0
  4 29  2  0     0  0
  5 31  1  0     0  0
  5 32  1  0     0  0
  6 12  2  0     0  0
  6 19  1  0     0  0
  7 16  1  0     0  0
  7 17  2  0     0  0
  8 16  2  0     0  0
  8 18  1  0     0  0
  9 12  1  0     0  0
  9 17  1  0     0  0
 10 20  1  0     0  0
 10 29  1  0     0  0
 11 34  1  0     0  0
 11 35  1  0     0  0
 11 36  1  0     0  0
 13 19  2  0     0  0
 13 29  1  0     0  0
 14 15  1  0     0  0
 14 22  2  0     0  0
 15 23  2  0     0  0
 17 21  1  0     0  0
 18 21  2  0     0  0
 18 22  1  0     0  0
 20 24  2  0     0  0
 20 25  1  0     0  0
 21 23  1  0     0  0
 24 26  1  0     0  0
 25 27  2  0     0  0
 26 28  2  0     0  0
 27 28  1  0     0  0
 30 37  1  0     0  0
 31 34  1  0     0  0
 32 35  1  0     0  0
 36 37  1  0     0  0
M  END
> <standard_type>
pIC50

> <# Confs.>
25

> <canonical_smiles>
O=C(C1=CN=C(NC2=NC=NC3=C2C=C(OC)C(OCCCN4CCOCC4)=C3)S1)NC5=CC=CC=C5

> <standard_relation>
=

> <Publication_ID>
nan

> <predicted_activity_value>
7.568636235841013

> <actual_activity_value>
7.376750709602099

> <Compound>
13

> <standard_units>
nM

> hash
14816628238382353164

$$$$
12
XXILIB    08252103493D 0   0.00000     0.00000

 37 41  0     1  0            999 V2000
   -6.1269   -2.3861    0.8727 S   0  0  0  0  0  2           0  0  0
    1.3659   -0.0000    0.0000 O   0  0  0  0  0  2           0  0  0
    0.2196   -0.0024    2.3371 O   0  0  0  0  0  2           0  0  0
   -8.6649   -4.5717    2.9096 O   0  0  0  0  0  2           0  0  0
    2.0371   -6.2169   -0.3363 O   0  0  0  0  0  2           0  0  0
   -6.4302   -0.9049    2.9456 N   0  0  0  0  0  3           0  0  0
   -4.9324   -0.0242   -1.0125 N   0  0  0  0  0  3           0  0  0
   -2.8758   -0.0236   -2.2436 N   0  0  0  0  0  3           0  0  0
   -4.9476    0.0220    1.3725 N   0  0  0  0  0  3           0  0  0
   -7.6839   -4.9375    0.8568 N   0  0  0  0  0  3           0  0  0
    2.4052   -3.4184    0.0875 N   0  0  2  0  0  3           0  0  0
   -5.7876   -0.9530    1.7938 C   0  0  0  0  0  4           0  0  0
   -7.1871   -2.9483    2.0910 C   0  0  0  0  0  4           0  0  0
    0.0000    0.0000    0.0000 C   0  0  0  0  0  4           0  0  0
   -0.6156   -0.0000    1.2556 C   0  0  0  0  0  4           0  0  0
   -4.2125   -0.0383   -2.1425 C   0  0  0  0  0  4           0  0  0
   -4.2388    0.0212    0.1525 C   0  0  0  0  0  4           0  0  0
   -2.1858   -0.0060   -1.0954 C   0  0  0  0  0  4           0  0  0
   -7.2180   -2.0246    3.1144 C   0  0  0  0  0  4           0  0  0
   -8.2190   -6.1807    0.4699 C   0  0  0  0  0  4           0  0  0
   -2.8194    0.0078    0.1619 C   0  0  0  0  0  4           0  0  0
   -0.7937   -0.0075   -1.1541 C   0  0  0  0  0  4           0  0  0
   -2.0130    0.0014    1.3293 C   0  0  0  0  0  4           0  0  0
   -9.1233   -6.8886    1.2709 C   0  0  0  0  0  4           0  0  0
   -7.8242   -6.7143   -0.7624 C   0  0  0  0  0  4           0  0  0
   -9.6248   -8.1185    0.8391 C   0  0  0  0  0  4           0  0  0
   -8.3283   -7.9440   -1.1890 C   0  0  0  0  0  4           0  0  0
   -9.2278   -8.6461   -0.3887 C   0  0  0  0  0  4           0  0  0
   -7.9096   -4.2001    2.0111 C   0  0  0  0  0  4           0  0  0
    1.9812   -0.6441   -1.1156 C   0  0  0  0  0  4           0  0  0
    1.5010   -5.5822    0.8239 C   0  0  0  0  0  4           0  0  0
    2.0635   -5.3137   -1.4410 C   0  0  0  0  0  4           0  0  0
   -0.4267   -0.0023    3.6083 C   0  0  0  0  0  4           0  0  0
    2.3476   -4.3722    1.2065 C   0  0  0  0  0  4           0  0  0
    2.9222   -4.0948   -1.1141 C   0  0  0  0  0  4           0  0  0
    3.2204   -2.2559    0.4498 C   0  0  0  0  0  4           0  0  0
    3.3205   -1.2222   -0.6757 C   0  0  0  0  0  4           0  0  0
  1 12  1  0     0  0
  1 13  1  0     0  0
  2 14  1  0     0  0
  2 30  1  0     0  0
  3 15  1  0     0  0
  3 33  1  0     0  0
  4 29  2  0     0  0
  5 31  1  0     0  0
  5 32  1  0     0  0
  6 12  2  0     0  0
  6 19  1  0     0  0
  7 16  1  0     0  0
  7 17  2  0     0  0
  8 16  2  0     0  0
  8 18  1  0     0  0
  9 12  1  0     0  0
  9 17  1  0     0  0
 10 20  1  0     0  0
 10 29  1  0     0  0
 11 34  1  0     0  0
 11 35  1  0     0  0
 11 36  1  0     0  0
 13 19  2  0     0  0
 13 29  1  0     0  0
 14 15  1  0     0  0
 14 22  2  0     0  0
 15 23  2  0     0  0
 17 21  1  0     0  0
 18 21  2  0     0  0
 18 22  1  0     0  0
 20 24  2  0     0  0
 20 25  1  0     0  0
 21 23  1  0     0  0
 24 26  1  0     0  0
 25 27  2  0     0  0
 26 28  2  0     0  0
 27 28  1  0     0  0
 30 37  1  0     0  0
 31 34  1  0     0  0
 32 35  1  0     0  0
 36 37  1  0     0  0
M  END
> <standard_type>
pIC50

> <# Confs.>
25

> <canonical_smiles>
O=C(C1=CN=C(NC2=NC=NC3=C2C=C(OC)C(OCCCN4CCOCC4)=C3)S1)NC5=CC=CC=C5

> <standard_relation>
=

> <Publication_ID>
nan

> <predicted_activity_value>
7.568636235841013

> <actual_activity_value>
7.376750709602099

> <Compound>
13

> <standard_units>
nM

> hash
14816628238382353164

$$$$
12
XXILIB    08252103493D 0   0.00000     0.00000

 37 41  0     1  0            999 V2000
   -6.8098    1.8818    0.6563 S   0  0  0  0  0  2           0  0  0
    1.3659   -0.0000    0.0000 O   0  0  0  0  0  2           0  0  0
    0.2196   -0.0024    2.3371 O   0  0  0  0  0  2           0  0  0
  -10.4391    2.6319    1.9342 O   0  0  0  0  0  2           0  0  0
    6.5795   -3.2735    2.7711 O   0  0  0  0  0  2           0  0  0
   -7.0353    0.0660    2.4549 N   0  0  0  0  0  3           0  0  0
   -4.9324   -0.0242   -1.0125 N   0  0  0  0  0  3           0  0  0
   -2.8758   -0.0236   -2.2436 N   0  0  0  0  0  3           0  0  0
   -4.9476    0.0220    1.3725 N   0  0  0  0  0  3           0  0  0
   -9.1843    3.6617    0.2986 N   0  0  0  0  0  3           0  0  0
    4.5237   -2.7929    0.8504 N   0  0  2  0  0  3           0  0  0
   -6.1855    0.5372    1.5617 C   0  0  0  0  0  4           0  0  0
   -8.2835    1.8121    1.5212 C   0  0  0  0  0  4           0  0  0
    0.0000    0.0000   -0.0000 C   0  0  0  0  0  4           0  0  0
   -0.6156   -0.0000    1.2556 C   0  0  0  0  0  4           0  0  0
   -4.2125   -0.0383   -2.1425 C   0  0  0  0  0  4           0  0  0
   -4.2388    0.0212    0.1525 C   0  0  0  0  0  4           0  0  0
   -2.1858   -0.0060   -1.0954 C   0  0  0  0  0  4           0  0  0
   -8.2145    0.7815    2.4347 C   0  0  0  0  0  4           0  0  0
  -10.0461    4.6716   -0.1693 C   0  0  0  0  0  4           0  0  0
   -2.8194    0.0078    0.1619 C   0  0  0  0  0  4           0  0  0
   -0.7937   -0.0075   -1.1541 C   0  0  0  0  0  4           0  0  0
   -2.0130    0.0014    1.3293 C   0  0  0  0  0  4           0  0  0
  -11.3313    4.8608    0.3533 C   0  0  0  0  0  4           0  0  0
   -9.5870    5.5089   -1.1927 C   0  0  0  0  0  4           0  0  0
  -12.1459    5.8791   -0.1468 C   0  0  0  0  0  4           0  0  0
  -10.4055    6.5249   -1.6890 C   0  0  0  0  0  4           0  0  0
  -11.6844    6.7098   -1.1667 C   0  0  0  0  0  4           0  0  0
   -9.3926    2.7132    1.2907 C   0  0  0  0  0  4           0  0  0
    1.9812   -0.6441   -1.1156 C   0  0  0  0  0  4           0  0  0
    5.7204   -4.3314    2.3480 C   0  0  0  0  0  4           0  0  0
    6.7768   -2.3298    1.7187 C   0  0  0  0  0  4           0  0  0
   -0.4267   -0.0023    3.6083 C   0  0  0  0  0  4           0  0  0
    4.3613   -3.7776    1.9317 C   0  0  0  0  0  4           0  0  0
    5.4432   -1.7276    1.2843 C   0  0  0  0  0  4           0  0  0
    3.2204   -2.2559    0.4498 C   0  0  0  0  0  4           0  0  0
    3.3205   -1.2222   -0.6757 C   0  0  0  0  0  4           0  0  0
  1 12  1  0     0  0
  1 13  1  0     0  0
  2 14  1  0     0  0
  2 30  1  0     0  0
  3 15  1  0     0  0
  3 33  1  0     0  0
  4 29  2  0     0  0
  5 31  1  0     0  0
  5 32  1  0     0  0
  6 12  2  0     0  0
  6 19  1  0     0  0
  7 16  1  0     0  0
  7 17  2  0     0  0
  8 16  2  0     0  0
  8 18  1  0     0  0
  9 12  1  0     0  0
  9 17  1  0     0  0
 10 20  1  0     0  0
 10 29  1  0     0  0
 11 34  1  0     0  0
 11 35  1  0     0  0
 11 36  1  0     0  0
 13 19  2  0     0  0
 13 29  1  0     0  0
 14 15  1  0     0  0
 14 22  2  0     0  0
 15 23  2  0     0  0
 17 21  1  0     0  0
 18 21  2  0     0  0
 18 22  1  0     0  0
 20 24  2  0     0  0
 20 25  1  0     0  0
 21 23  1  0     0  0
 24 26  1  0     0  0
 25 27  2  0     0  0
 26 28  2  0     0  0
 27 28  1  0     0  0
 30 37  1  0     0  0
 31 34  1  0     0  0
 32 35  1  0     0  0
 36 37  1  0     0  0
M  END
> <standard_type>
pIC50

> <# Confs.>
25

> <canonical_smiles>
O=C(C1=CN=C(NC2=NC=NC3=C2C=C(OC)C(OCCCN4CCOCC4)=C3)S1)NC5=CC=CC=C5

> <standard_relation>
=

> <Publication_ID>
nan

> <predicted_activity_value>
7.568636235841013

> <actual_activity_value>
7.376750709602099

> <Compound>
13

> <standard_units>
nM

> hash
14816628238382353164

$$$$
12
XXILIB    08252103493D 0   0.00000     0.00000

 37 41  0     1  0            999 V2000
   -6.8098    1.8818    0.6563 S   0  0  0  0  0  2           0  0  0
    1.3659    0.0000   -0.0000 O   0  0  0  0  0  2           0  0  0
    0.2196   -0.0024    2.3371 O   0  0  0  0  0  2           0  0  0
  -10.4391    2.6319    1.9342 O   0  0  0  0  0  2           0  0  0
    7.8749    1.1233    1.3819 O   0  0  0  0  0  2           0  0  0
   -7.0353    0.0660    2.4549 N   0  0  0  0  0  3           0  0  0
   -4.9324   -0.0242   -1.0125 N   0  0  0  0  0  3           0  0  0
   -2.8758   -0.0236   -2.2436 N   0  0  0  0  0  3           0  0  0
   -4.9476    0.0220    1.3725 N   0  0  0  0  0  3           0  0  0
   -9.1843    3.6617    0.2986 N   0  0  0  0  0  3           0  0  0
    5.4967    1.1804   -0.1952 N   0  0  2  0  0  3           0  0  0
   -6.1855    0.5372    1.5617 C   0  0  0  0  0  4           0  0  0
   -8.2835    1.8121    1.5212 C   0  0  0  0  0  4           0  0  0
    0.0000    0.0000   -0.0000 C   0  0  0  0  0  4           0  0  0
   -0.6156   -0.0000    1.2556 C   0  0  0  0  0  4           0  0  0
   -4.2125   -0.0383   -2.1425 C   0  0  0  0  0  4           0  0  0
   -4.2388    0.0212    0.1525 C   0  0  0  0  0  4           0  0  0
   -2.1858   -0.0060   -1.0954 C   0  0  0  0  0  4           0  0  0
   -8.2145    0.7815    2.4347 C   0  0  0  0  0  4           0  0  0
  -10.0461    4.6716   -0.1693 C   0  0  0  0  0  4           0  0  0
   -2.8194    0.0078    0.1619 C   0  0  0  0  0  4           0  0  0
   -0.7937   -0.0075   -1.1541 C   0  0  0  0  0  4           0  0  0
   -2.0130    0.0014    1.3293 C   0  0  0  0  0  4           0  0  0
  -11.3313    4.8608    0.3533 C   0  0  0  0  0  4           0  0  0
   -9.5870    5.5089   -1.1927 C   0  0  0  0  0  4           0  0  0
  -12.1459    5.8791   -0.1468 C   0  0  0  0  0  4           0  0  0
  -10.4055    6.5249   -1.6890 C   0  0  0  0  0  4           0  0  0
  -11.6844    6.7098   -1.1667 C   0  0  0  0  0  4           0  0  0
   -9.3926    2.7132    1.2907 C   0  0  0  0  0  4           0  0  0
    1.9812    0.0000   -1.2882 C   0  0  0  0  0  4           0  0  0
    7.4282   -0.0481    0.7003 C   0  0  0  0  0  4           0  0  0
    7.5128    2.2992    0.6585 C   0  0  0  0  0  4           0  0  0
   -0.4267   -0.0023    3.6083 C   0  0  0  0  0  4           0  0  0
    5.9112   -0.0241    0.5413 C   0  0  0  0  0  4           0  0  0
    5.9973    2.3807    0.4958 C   0  0  0  0  0  4           0  0  0
    4.0395    1.2091   -0.3473 C   0  0  0  0  0  4           0  0  0
    3.4948    0.0000   -1.1130 C   0  0  0  0  0  4           0  0  0
  1 12  1  0     0  0
  1 13  1  0     0  0
  2 14  1  0     0  0
  2 30  1  0     0  0
  3 15  1  0     0  0
  3 33  1  0     0  0
  4 29  2  0     0  0
  5 31  1  0     0  0
  5 32  1  0     0  0
  6 12  2  0     0  0
  6 19  1  0     0  0
  7 16  1  0     0  0
  7 17  2  0     0  0
  8 16  2  0     0  0
  8 18  1  0     0  0
  9 12  1  0     0  0
  9 17  1  0     0  0
 10 20  1  0     0  0
 10 29  1  0     0  0
 11 34  1  0     0  0
 11 35  1  0     0  0
 11 36  1  0     0  0
 13 19  2  0     0  0
 13 29  1  0     0  0
 14 15  1  0     0  0
 14 22  2  0     0  0
 15 23  2  0     0  0
 17 21  1  0     0  0
 18 21  2  0     0  0
 18 22  1  0     0  0
 20 24  2  0     0  0
 20 25  1  0     0  0
 21 23  1  0     0  0
 24 26  1  0     0  0
 25 27  2  0     0  0
 26 28  2  0     0  0
 27 28  1  0     0  0
 30 37  1  0     0  0
 31 34  1  0     0  0
 32 35  1  0     0  0
 36 37  1  0     0  0
M  END
> <standard_type>
pIC50

> <# Confs.>
25

> <canonical_smiles>
O=C(C1=CN=C(NC2=NC=NC3=C2C=C(OC)C(OCCCN4CCOCC4)=C3)S1)NC5=CC=CC=C5

> <standard_relation>
=

> <Publication_ID>
nan

> <predicted_activity_value>
7.568636235841013

> <actual_activity_value>
7.376750709602099

> <Compound>
13

> <standard_units>
nM

> hash
14816628238382353164

$$$$
12
XXILIB    08252103493D 0   0.00000     0.00000

 37 41  0     1  0            999 V2000
   -6.8098    1.8818    0.6563 S   0  0  0  0  0  2           0  0  0
    1.3659   -0.0000    0.0000 O   0  0  0  0  0  2           0  0  0
    0.2196   -0.0024    2.3371 O   0  0  0  0  0  2           0  0  0
  -10.4391    2.6319    1.9342 O   0  0  0  0  0  2           0  0  0
    4.4943   -4.9468   -2.2261 O   0  0  0  0  0  2           0  0  0
   -7.0353    0.0660    2.4549 N   0  0  0  0  0  3           0  0  0
   -4.9324   -0.0242   -1.0125 N   0  0  0  0  0  3           0  0  0
   -2.8758   -0.0236   -2.2436 N   0  0  0  0  0  3           0  0  0
   -4.9476    0.0220    1.3725 N   0  0  0  0  0  3           0  0  0
   -9.1843    3.6617    0.2986 N   0  0  0  0  0  3           0  0  0
    3.7324   -2.4848   -0.9996 N   0  0  2  0  0  3           0  0  0
   -6.1855    0.5372    1.5617 C   0  0  0  0  0  4           0  0  0
   -8.2835    1.8121    1.5212 C   0  0  0  0  0  4           0  0  0
    0.0000    0.0000   -0.0000 C   0  0  0  0  0  4           0  0  0
   -0.6156   -0.0000    1.2556 C   0  0  0  0  0  4           0  0  0
   -4.2125   -0.0383   -2.1425 C   0  0  0  0  0  4           0  0  0
   -4.2388    0.0212    0.1525 C   0  0  0  0  0  4           0  0  0
   -2.1858   -0.0060   -1.0954 C   0  0  0  0  0  4           0  0  0
   -8.2145    0.7815    2.4347 C   0  0  0  0  0  4           0  0  0
  -10.0461    4.6716   -0.1693 C   0  0  0  0  0  4           0  0  0
   -2.8194    0.0078    0.1619 C   0  0  0  0  0  4           0  0  0
   -0.7937   -0.0075   -1.1541 C   0  0  0  0  0  4           0  0  0
   -2.0130    0.0014    1.3293 C   0  0  0  0  0  4           0  0  0
  -11.3313    4.8608    0.3533 C   0  0  0  0  0  4           0  0  0
   -9.5870    5.5089   -1.1927 C   0  0  0  0  0  4           0  0  0
  -12.1459    5.8791   -0.1468 C   0  0  0  0  0  4           0  0  0
  -10.4055    6.5249   -1.6890 C   0  0  0  0  0  4           0  0  0
  -11.6844    6.7098   -1.1667 C   0  0  0  0  0  4           0  0  0
   -9.3926    2.7132    1.2907 C   0  0  0  0  0  4           0  0  0
    1.9812    0.0000   -1.2882 C   0  0  0  0  0  4           0  0  0
    3.9615   -4.9302   -0.9025 C   0  0  0  0  0  4           0  0  0
    3.9420   -3.8879   -3.0077 C   0  0  0  0  0  4           0  0  0
   -0.4267   -0.0023    3.6083 C   0  0  0  0  0  4           0  0  0
    4.2805   -3.6046   -0.2181 C   0  0  0  0  0  4           0  0  0
    4.2580   -2.5356   -2.3743 C   0  0  0  0  0  4           0  0  0
    4.0395   -1.2091   -0.3473 C   0  0  0  0  0  4           0  0  0
    3.4948   -0.0000   -1.1130 C   0  0  0  0  0  4           0  0  0
  1 12  1  0     0  0
  1 13  1  0     0  0
  2 14  1  0     0  0
  2 30  1  0     0  0
  3 15  1  0     0  0
  3 33  1  0     0  0
  4 29  2  0     0  0
  5 31  1  0     0  0
  5 32  1  0     0  0
  6 12  2  0     0  0
  6 19  1  0     0  0
  7 16  1  0     0  0
  7 17  2  0     0  0
  8 16  2  0     0  0
  8 18  1  0     0  0
  9 12  1  0     0  0
  9 17  1  0     0  0
 10 20  1  0     0  0
 10 29  1  0     0  0
 11 34  1  0     0  0
 11 35  1  0     0  0
 11 36  1  0     0  0
 13 19  2  0     0  0
 13 29  1  0     0  0
 14 15  1  0     0  0
 14 22  2  0     0  0
 15 23  2  0     0  0
 17 21  1  0     0  0
 18 21  2  0     0  0
 18 22  1  0     0  0
 20 24  2  0     0  0
 20 25  1  0     0  0
 21 23  1  0     0  0
 24 26  1  0     0  0
 25 27  2  0     0  0
 26 28  2  0     0  0
 27 28  1  0     0  0
 30 37  1  0     0  0
 31 34  1  0     0  0
 32 35  1  0     0  0
 36 37  1  0     0  0
M  END
> <standard_type>
pIC50

> <# Confs.>
25

> <canonical_smiles>
O=C(C1=CN=C(NC2=NC=NC3=C2C=C(OC)C(OCCCN4CCOCC4)=C3)S1)NC5=CC=CC=C5

> <standard_relation>
=

> <Publication_ID>
nan

> <predicted_activity_value>
7.568636235841013

> <actual_activity_value>
7.376750709602099

> <Compound>
13

> <standard_units>
nM

> hash
14816628238382353164

$$$$
12
XXILIB    08252103493D 0   0.00000     0.00000

 37 41  0     1  0            999 V2000
   -6.8098    1.8818    0.6563 S   0  0  0  0  0  2           0  0  0
    1.3659   -0.0000   -0.0000 O   0  0  0  0  0  2           0  0  0
    0.2196   -0.0024    2.3371 O   0  0  0  0  0  2           0  0  0
  -10.4391    2.6319    1.9342 O   0  0  0  0  0  2           0  0  0
    8.3292   -1.1410   -2.5398 O   0  0  0  0  0  2           0  0  0
   -7.0353    0.0660    2.4549 N   0  0  0  0  0  3           0  0  0
   -4.9324   -0.0242   -1.0125 N   0  0  0  0  0  3           0  0  0
   -2.8758   -0.0236   -2.2436 N   0  0  0  0  0  3           0  0  0
   -4.9476    0.0220    1.3725 N   0  0  0  0  0  3           0  0  0
   -9.1843    3.6617    0.2986 N   0  0  0  0  0  3           0  0  0
    5.7318    0.0000   -2.2262 N   0  0  2  0  0  3           0  0  0
   -6.1855    0.5372    1.5617 C   0  0  0  0  0  4           0  0  0
   -8.2835    1.8121    1.5212 C   0  0  0  0  0  4           0  0  0
    0.0000    0.0000   -0.0000 C   0  0  0  0  0  4           0  0  0
   -0.6156   -0.0000    1.2556 C   0  0  0  0  0  4           0  0  0
   -4.2125   -0.0383   -2.1425 C   0  0  0  0  0  4           0  0  0
   -4.2388    0.0212    0.1525 C   0  0  0  0  0  4           0  0  0
   -2.1858   -0.0060   -1.0954 C   0  0  0  0  0  4           0  0  0
   -8.2145    0.7815    2.4347 C   0  0  0  0  0  4           0  0  0
  -10.0461    4.6716   -0.1693 C   0  0  0  0  0  4           0  0  0
   -2.8194    0.0078    0.1619 C   0  0  0  0  0  4           0  0  0
   -0.7937   -0.0075   -1.1541 C   0  0  0  0  0  4           0  0  0
   -2.0130    0.0014    1.3293 C   0  0  0  0  0  4           0  0  0
  -11.3313    4.8608    0.3533 C   0  0  0  0  0  4           0  0  0
   -9.5870    5.5089   -1.1927 C   0  0  0  0  0  4           0  0  0
  -12.1459    5.8791   -0.1468 C   0  0  0  0  0  4           0  0  0
  -10.4055    6.5249   -1.6890 C   0  0  0  0  0  4           0  0  0
  -11.6844    6.7098   -1.1667 C   0  0  0  0  0  4           0  0  0
   -9.3926    2.7132    1.2907 C   0  0  0  0  0  4           0  0  0
    1.9812    0.0000   -1.2882 C   0  0  0  0  0  4           0  0  0
    7.9390   -0.0035   -3.3080 C   0  0  0  0  0  4           0  0  0
    7.6897   -1.1339   -1.2638 C   0  0  0  0  0  4           0  0  0
   -0.4267   -0.0023    3.6083 C   0  0  0  0  0  4           0  0  0
    6.4286    0.0000   -3.5222 C   0  0  0  0  0  4           0  0  0
    6.1721   -1.1557   -1.4268 C   0  0  0  0  0  4           0  0  0
    4.2803    0.0000   -2.4275 C   0  0  0  0  0  4           0  0  0
    3.4948   -0.0000   -1.1130 C   0  0  0  0  0  4           0  0  0
  1 12  1  0     0  0
  1 13  1  0     0  0
  2 14  1  0     0  0
  2 30  1  0     0  0
  3 15  1  0     0  0
  3 33  1  0     0  0
  4 29  2  0     0  0
  5 31  1  0     0  0
  5 32  1  0     0  0
  6 12  2  0     0  0
  6 19  1  0     0  0
  7 16  1  0     0  0
  7 17  2  0     0  0
  8 16  2  0     0  0
  8 18  1  0     0  0
  9 12  1  0     0  0
  9 17  1  0     0  0
 10 20  1  0     0  0
 10 29  1  0     0  0
 11 34  1  0     0  0
 11 35  1  0     0  0
 11 36  1  0     0  0
 13 19  2  0     0  0
 13 29  1  0     0  0
 14 15  1  0     0  0
 14 22  2  0     0  0
 15 23  2  0     0  0
 17 21  1  0     0  0
 18 21  2  0     0  0
 18 22  1  0     0  0
 20 24  2  0     0  0
 20 25  1  0     0  0
 21 23  1  0     0  0
 24 26  1  0     0  0
 25 27  2  0     0  0
 26 28  2  0     0  0
 27 28  1  0     0  0
 30 37  1  0     0  0
 31 34  1  0     0  0
 32 35  1  0     0  0
 36 37  1  0     0  0
M  END
> <standard_type>
pIC50

> <# Confs.>
25

> <canonical_smiles>
O=C(C1=CN=C(NC2=NC=NC3=C2C=C(OC)C(OCCCN4CCOCC4)=C3)S1)NC5=CC=CC=C5

> <standard_relation>
=

> <Publication_ID>
nan

> <predicted_activity_value>
7.568636235841013

> <actual_activity_value>
7.376750709602099

> <Compound>
13

> <standard_units>
nM

> hash
14816628238382353164

$$$$
12
XXILIB    08252103493D 0   0.00000     0.00000

 37 41  0     1  0            999 V2000
   -7.1093    1.2929    0.2996 S   0  0  0  0  0  2           0  0  0
    1.3659   -0.0000    0.0000 O   0  0  0  0  0  2           0  0  0
    0.2196   -0.0024    2.3371 O   0  0  0  0  0  2           0  0  0
  -10.5249    2.4659    1.8246 O   0  0  0  0  0  2           0  0  0
    4.4943   -4.9468   -2.2261 O   0  0  0  0  0  2           0  0  0
   -6.8071    0.5149    2.7258 N   0  0  0  0  0  3           0  0  0
   -4.9324   -0.0242   -1.0125 N   0  0  0  0  0  3           0  0  0
   -2.8758   -0.0236   -2.2436 N   0  0  0  0  0  3           0  0  0
   -4.9476    0.0220    1.3725 N   0  0  0  0  0  3           0  0  0
   -9.7008    2.6476   -0.3197 N   0  0  0  0  0  3           0  0  0
    3.7324   -2.4848   -0.9996 N   0  0  2  0  0  3           0  0  0
   -6.1855    0.5372    1.5617 C   0  0  0  0  0  4           0  0  0
   -8.3928    1.5985    1.3877 C   0  0  0  0  0  4           0  0  0
    0.0000    0.0000   -0.0000 C   0  0  0  0  0  4           0  0  0
   -0.6156    0.0000    1.2556 C   0  0  0  0  0  4           0  0  0
   -4.2125   -0.0383   -2.1425 C   0  0  0  0  0  4           0  0  0
   -4.2388    0.0212    0.1525 C   0  0  0  0  0  4           0  0  0
   -2.1858   -0.0060   -1.0954 C   0  0  0  0  0  4           0  0  0
   -8.0471    1.1117    2.6307 C   0  0  0  0  0  4           0  0  0
  -10.7422    3.3046   -1.0019 C   0  0  0  0  0  4           0  0  0
   -2.8194    0.0078    0.1619 C   0  0  0  0  0  4           0  0  0
   -0.7937   -0.0075   -1.1541 C   0  0  0  0  0  4           0  0  0
   -2.0130    0.0014    1.3293 C   0  0  0  0  0  4           0  0  0
  -11.9307    3.6848   -0.3667 C   0  0  0  0  0  4           0  0  0
  -10.5679    3.5815   -2.3628 C   0  0  0  0  0  4           0  0  0
  -12.9325    4.3353   -1.0904 C   0  0  0  0  0  4           0  0  0
  -11.5725    4.2317   -3.0814 C   0  0  0  0  0  4           0  0  0
  -12.7544    4.6081   -2.4458 C   0  0  0  0  0  4           0  0  0
   -9.6224    2.2635    1.0120 C   0  0  0  0  0  4           0  0  0
    1.9812    0.0000   -1.2882 C   0  0  0  0  0  4           0  0  0
    3.9615   -4.9302   -0.9025 C   0  0  0  0  0  4           0  0  0
    3.9420   -3.8879   -3.0077 C   0  0  0  0  0  4           0  0  0
   -0.4267   -0.0023    3.6083 C   0  0  0  0  0  4           0  0  0
    4.2805   -3.6046   -0.2181 C   0  0  0  0  0  4           0  0  0
    4.2580   -2.5356   -2.3743 C   0  0  0  0  0  4           0  0  0
    4.0395   -1.2091   -0.3473 C   0  0  0  0  0  4           0  0  0
    3.4948   -0.0000   -1.1130 C   0  0  0  0  0  4           0  0  0
  1 12  1  0     0  0
  1 13  1  0     0  0
  2 14  1  0     0  0
  2 30  1  0     0  0
  3 15  1  0     0  0
  3 33  1  0     0  0
  4 29  2  0     0  0
  5 31  1  0     0  0
  5 32  1  0     0  0
  6 12  2  0     0  0
  6 19  1  0     0  0
  7 16  1  0     0  0
  7 17  2  0     0  0
  8 16  2  0     0  0
  8 18  1  0     0  0
  9 12  1  0     0  0
  9 17  1  0     0  0
 10 20  1  0     0  0
 10 29  1  0     0  0
 11 34  1  0     0  0
 11 35  1  0     0  0
 11 36  1  0     0  0
 13 19  2  0     0  0
 13 29  1  0     0  0
 14 15  1  0     0  0
 14 22  2  0     0  0
 15 23  2  0     0  0
 17 21  1  0     0  0
 18 21  2  0     0  0
 18 22  1  0     0  0
 20 24  2  0     0  0
 20 25  1  0     0  0
 21 23  1  0     0  0
 24 26  1  0     0  0
 25 27  2  0     0  0
 26 28  2  0     0  0
 27 28  1  0     0  0
 30 37  1  0     0  0
 31 34  1  0     0  0
 32 35  1  0     0  0
 36 37  1  0     0  0
M  END
> <standard_type>
pIC50

> <# Confs.>
25

> <canonical_smiles>
O=C(C1=CN=C(NC2=NC=NC3=C2C=C(OC)C(OCCCN4CCOCC4)=C3)S1)NC5=CC=CC=C5

> <standard_relation>
=

> <Publication_ID>
nan

> <predicted_activity_value>
7.568636235841013

> <actual_activity_value>
7.376750709602099

> <Compound>
13

> <standard_units>
nM

> hash
14816628238382353164

$$$$
12
XXILIB    08252103493D 0   0.00000     0.00000

 37 41  0     1  0            999 V2000
   -6.8098    1.8818    0.6563 S   0  0  0  0  0  2           0  0  0
    1.3659    0.0000   -0.0000 O   0  0  0  0  0  2           0  0  0
    0.2196   -0.0024    2.3371 O   0  0  0  0  0  2           0  0  0
  -10.4391    2.6319    1.9342 O   0  0  0  0  0  2           0  0  0
    8.1025    2.2793   -0.5812 O   0  0  0  0  0  2           0  0  0
   -7.0353    0.0660    2.4549 N   0  0  0  0  0  3           0  0  0
   -4.9324   -0.0242   -1.0125 N   0  0  0  0  0  3           0  0  0
   -2.8758   -0.0236   -2.2436 N   0  0  0  0  0  3           0  0  0
   -4.9476    0.0220    1.3725 N   0  0  0  0  0  3           0  0  0
   -9.1843    3.6617    0.2986 N   0  0  0  0  0  3           0  0  0
    5.4967    1.1804   -0.1952 N   0  0  2  0  0  3           0  0  0
   -6.1855    0.5372    1.5617 C   0  0  0  0  0  4           0  0  0
   -8.2835    1.8121    1.5212 C   0  0  0  0  0  4           0  0  0
    0.0000    0.0000   -0.0000 C   0  0  0  0  0  4           0  0  0
   -0.6156   -0.0000    1.2556 C   0  0  0  0  0  4           0  0  0
   -4.2125   -0.0383   -2.1425 C   0  0  0  0  0  4           0  0  0
   -4.2388    0.0212    0.1525 C   0  0  0  0  0  4           0  0  0
   -2.1858   -0.0060   -1.0954 C   0  0  0  0  0  4           0  0  0
   -8.2145    0.7815    2.4347 C   0  0  0  0  0  4           0  0  0
  -10.0461    4.6716   -0.1693 C   0  0  0  0  0  4           0  0  0
   -2.8194    0.0078    0.1619 C   0  0  0  0  0  4           0  0  0
   -0.7937   -0.0075   -1.1541 C   0  0  0  0  0  4           0  0  0
   -2.0130    0.0014    1.3293 C   0  0  0  0  0  4           0  0  0
  -11.3313    4.8608    0.3533 C   0  0  0  0  0  4           0  0  0
   -9.5870    5.5089   -1.1927 C   0  0  0  0  0  4           0  0  0
  -12.1459    5.8791   -0.1468 C   0  0  0  0  0  4           0  0  0
  -10.4055    6.5249   -1.6890 C   0  0  0  0  0  4           0  0  0
  -11.6844    6.7098   -1.1667 C   0  0  0  0  0  4           0  0  0
   -9.3926    2.7132    1.2907 C   0  0  0  0  0  4           0  0  0
    1.9812    0.0000   -1.2882 C   0  0  0  0  0  4           0  0  0
    7.4751    2.3326    0.6994 C   0  0  0  0  0  4           0  0  0
    7.6935    1.1144   -1.2973 C   0  0  0  0  0  4           0  0  0
   -0.4267   -0.0023    3.6083 C   0  0  0  0  0  4           0  0  0
    5.9576    2.3647    0.5464 C   0  0  0  0  0  4           0  0  0
    6.1804    1.1144   -1.4979 C   0  0  0  0  0  4           0  0  0
    4.0395    1.2091   -0.3473 C   0  0  0  0  0  4           0  0  0
    3.4948    0.0000   -1.1130 C   0  0  0  0  0  4           0  0  0
  1 12  1  0     0  0
  1 13  1  0     0  0
  2 14  1  0     0  0
  2 30  1  0     0  0
  3 15  1  0     0  0
  3 33  1  0     0  0
  4 29  2  0     0  0
  5 31  1  0     0  0
  5 32  1  0     0  0
  6 12  2  0     0  0
  6 19  1  0     0  0
  7 16  1  0     0  0
  7 17  2  0     0  0
  8 16  2  0     0  0
  8 18  1  0     0  0
  9 12  1  0     0  0
  9 17  1  0     0  0
 10 20  1  0     0  0
 10 29  1  0     0  0
 11 34  1  0     0  0
 11 35  1  0     0  0
 11 36  1  0     0  0
 13 19  2  0     0  0
 13 29  1  0     0  0
 14 15  1  0     0  0
 14 22  2  0     0  0
 15 23  2  0     0  0
 17 21  1  0     0  0
 18 21  2  0     0  0
 18 22  1  0     0  0
 20 24  2  0     0  0
 20 25  1  0     0  0
 21 23  1  0     0  0
 24 26  1  0     0  0
 25 27  2  0     0  0
 26 28  2  0     0  0
 27 28  1  0     0  0
 30 37  1  0     0  0
 31 34  1  0     0  0
 32 35  1  0     0  0
 36 37  1  0     0  0
M  END
> <standard_type>
pIC50

> <# Confs.>
25

> <canonical_smiles>
O=C(C1=CN=C(NC2=NC=NC3=C2C=C(OC)C(OCCCN4CCOCC4)=C3)S1)NC5=CC=CC=C5

> <standard_relation>
=

> <Publication_ID>
nan

> <predicted_activity_value>
7.568636235841013

> <actual_activity_value>
7.376750709602099

> <Compound>
13

> <standard_units>
nM

> hash
14816628238382353164

$$$$
12
XXILIB    08252103493D 0   0.00000     0.00000

 37 41  0     1  0            999 V2000
   -6.8098    1.8818    0.6563 S   0  0  0  0  0  2           0  0  0
    1.3659   -0.0000    0.0000 O   0  0  0  0  0  2           0  0  0
    0.2196   -0.0024    2.3371 O   0  0  0  0  0  2           0  0  0
  -10.4391    2.6319    1.9342 O   0  0  0  0  0  2           0  0  0
    2.0371   -6.2169   -0.3363 O   0  0  0  0  0  2           0  0  0
   -7.0353    0.0660    2.4549 N   0  0  0  0  0  3           0  0  0
   -4.9324   -0.0242   -1.0125 N   0  0  0  0  0  3           0  0  0
   -2.8758   -0.0236   -2.2436 N   0  0  0  0  0  3           0  0  0
   -4.9476    0.0220    1.3725 N   0  0  0  0  0  3           0  0  0
   -9.1843    3.6617    0.2986 N   0  0  0  0  0  3           0  0  0
    2.4052   -3.4184    0.0875 N   0  0  2  0  0  3           0  0  0
   -6.1855    0.5372    1.5617 C   0  0  0  0  0  4           0  0  0
   -8.2835    1.8121    1.5212 C   0  0  0  0  0  4           0  0  0
    0.0000    0.0000   -0.0000 C   0  0  0  0  0  4           0  0  0
   -0.6156   -0.0000    1.2556 C   0  0  0  0  0  4           0  0  0
   -4.2125   -0.0383   -2.1425 C   0  0  0  0  0  4           0  0  0
   -4.2388    0.0212    0.1525 C   0  0  0  0  0  4           0  0  0
   -2.1858   -0.0060   -1.0954 C   0  0  0  0  0  4           0  0  0
   -8.2145    0.7815    2.4347 C   0  0  0  0  0  4           0  0  0
  -10.0461    4.6716   -0.1693 C   0  0  0  0  0  4           0  0  0
   -2.8194    0.0078    0.1619 C   0  0  0  0  0  4           0  0  0
   -0.7937   -0.0075   -1.1541 C   0  0  0  0  0  4           0  0  0
   -2.0130    0.0014    1.3293 C   0  0  0  0  0  4           0  0  0
  -11.3313    4.8608    0.3533 C   0  0  0  0  0  4           0  0  0
   -9.5870    5.5089   -1.1927 C   0  0  0  0  0  4           0  0  0
  -12.1459    5.8791   -0.1468 C   0  0  0  0  0  4           0  0  0
  -10.4055    6.5249   -1.6890 C   0  0  0  0  0  4           0  0  0
  -11.6844    6.7098   -1.1667 C   0  0  0  0  0  4           0  0  0
   -9.3926    2.7132    1.2907 C   0  0  0  0  0  4           0  0  0
    1.9812   -0.6441   -1.1156 C   0  0  0  0  0  4           0  0  0
    1.5010   -5.5822    0.8239 C   0  0  0  0  0  4           0  0  0
    2.0635   -5.3137   -1.4410 C   0  0  0  0  0  4           0  0  0
   -0.4267   -0.0023    3.6083 C   0  0  0  0  0  4           0  0  0
    2.3476   -4.3722    1.2065 C   0  0  0  0  0  4           0  0  0
    2.9222   -4.0948   -1.1141 C   0  0  0  0  0  4           0  0  0
    3.2204   -2.2559    0.4498 C   0  0  0  0  0  4           0  0  0
    3.3205   -1.2222   -0.6757 C   0  0  0  0  0  4           0  0  0
  1 12  1  0     0  0
  1 13  1  0     0  0
  2 14  1  0     0  0
  2 30  1  0     0  0
  3 15  1  0     0  0
  3 33  1  0     0  0
  4 29  2  0     0  0
  5 31  1  0     0  0
  5 32  1  0     0  0
  6 12  2  0     0  0
  6 19  1  0     0  0
  7 16  1  0     0  0
  7 17  2  0     0  0
  8 16  2  0     0  0
  8 18  1  0     0  0
  9 12  1  0     0  0
  9 17  1  0     0  0
 10 20  1  0     0  0
 10 29  1  0     0  0
 11 34  1  0     0  0
 11 35  1  0     0  0
 11 36  1  0     0  0
 13 19  2  0     0  0
 13 29  1  0     0  0
 14 15  1  0     0  0
 14 22  2  0     0  0
 15 23  2  0     0  0
 17 21  1  0     0  0
 18 21  2  0     0  0
 18 22  1  0     0  0
 20 24  2  0     0  0
 20 25  1  0     0  0
 21 23  1  0     0  0
 24 26  1  0     0  0
 25 27  2  0     0  0
 26 28  2  0     0  0
 27 28  1  0     0  0
 30 37  1  0     0  0
 31 34  1  0     0  0
 32 35  1  0     0  0
 36 37  1  0     0  0
M  END
> <standard_type>
pIC50

> <# Confs.>
25

> <canonical_smiles>
O=C(C1=CN=C(NC2=NC=NC3=C2C=C(OC)C(OCCCN4CCOCC4)=C3)S1)NC5=CC=CC=C5

> <standard_relation>
=

> <Publication_ID>
nan

> <predicted_activity_value>
7.568636235841013

> <actual_activity_value>
7.376750709602099

> <Compound>
13

> <standard_units>
nM

> hash
14816628238382353164

$$$$
12
XXILIB    08252103493D 0   0.00000     0.00000

 37 41  0     1  0            999 V2000
   -7.1093    1.2929    0.2996 S   0  0  0  0  0  2           0  0  0
    1.3659   -0.0000    0.0000 O   0  0  0  0  0  2           0  0  0
    0.2196   -0.0024    2.3371 O   0  0  0  0  0  2           0  0  0
  -10.5249    2.4659    1.8246 O   0  0  0  0  0  2           0  0  0
    2.0371   -6.2169   -0.3363 O   0  0  0  0  0  2           0  0  0
   -6.8071    0.5149    2.7258 N   0  0  0  0  0  3           0  0  0
   -4.9324   -0.0242   -1.0125 N   0  0  0  0  0  3           0  0  0
   -2.8758   -0.0236   -2.2436 N   0  0  0  0  0  3           0  0  0
   -4.9476    0.0220    1.3725 N   0  0  0  0  0  3           0  0  0
   -9.7008    2.6476   -0.3197 N   0  0  0  0  0  3           0  0  0
    2.4052   -3.4184    0.0875 N   0  0  2  0  0  3           0  0  0
   -6.1855    0.5372    1.5617 C   0  0  0  0  0  4           0  0  0
   -8.3928    1.5985    1.3877 C   0  0  0  0  0  4           0  0  0
    0.0000    0.0000   -0.0000 C   0  0  0  0  0  4           0  0  0
   -0.6156    0.0000    1.2556 C   0  0  0  0  0  4           0  0  0
   -4.2125   -0.0383   -2.1425 C   0  0  0  0  0  4           0  0  0
   -4.2388    0.0212    0.1525 C   0  0  0  0  0  4           0  0  0
   -2.1858   -0.0060   -1.0954 C   0  0  0  0  0  4           0  0  0
   -8.0471    1.1117    2.6307 C   0  0  0  0  0  4           0  0  0
  -10.7422    3.3046   -1.0019 C   0  0  0  0  0  4           0  0  0
   -2.8194    0.0078    0.1619 C   0  0  0  0  0  4           0  0  0
   -0.7937   -0.0075   -1.1541 C   0  0  0  0  0  4           0  0  0
   -2.0130    0.0014    1.3293 C   0  0  0  0  0  4           0  0  0
  -11.9307    3.6848   -0.3667 C   0  0  0  0  0  4           0  0  0
  -10.5679    3.5815   -2.3628 C   0  0  0  0  0  4           0  0  0
  -12.9325    4.3353   -1.0904 C   0  0  0  0  0  4           0  0  0
  -11.5725    4.2317   -3.0814 C   0  0  0  0  0  4           0  0  0
  -12.7544    4.6081   -2.4458 C   0  0  0  0  0  4           0  0  0
   -9.6224    2.2635    1.0120 C   0  0  0  0  0  4           0  0  0
    1.9812   -0.6441   -1.1156 C   0  0  0  0  0  4           0  0  0
    1.5010   -5.5822    0.8239 C   0  0  0  0  0  4           0  0  0
    2.0635   -5.3137   -1.4410 C   0  0  0  0  0  4           0  0  0
   -0.4267   -0.0023    3.6083 C   0  0  0  0  0  4           0  0  0
    2.3476   -4.3722    1.2065 C   0  0  0  0  0  4           0  0  0
    2.9222   -4.0948   -1.1141 C   0  0  0  0  0  4           0  0  0
    3.2204   -2.2559    0.4498 C   0  0  0  0  0  4           0  0  0
    3.3205   -1.2222   -0.6757 C   0  0  0  0  0  4           0  0  0
  1 12  1  0     0  0
  1 13  1  0     0  0
  2 14  1  0     0  0
  2 30  1  0     0  0
  3 15  1  0     0  0
  3 33  1  0     0  0
  4 29  2  0     0  0
  5 31  1  0     0  0
  5 32  1  0     0  0
  6 12  2  0     0  0
  6 19  1  0     0  0
  7 16  1  0     0  0
  7 17  2  0     0  0
  8 16  2  0     0  0
  8 18  1  0     0  0
  9 12  1  0     0  0
  9 17  1  0     0  0
 10 20  1  0     0  0
 10 29  1  0     0  0
 11 34  1  0     0  0
 11 35  1  0     0  0
 11 36  1  0     0  0
 13 19  2  0     0  0
 13 29  1  0     0  0
 14 15  1  0     0  0
 14 22  2  0     0  0
 15 23  2  0     0  0
 17 21  1  0     0  0
 18 21  2  0     0  0
 18 22  1  0     0  0
 20 24  2  0     0  0
 20 25  1  0     0  0
 21 23  1  0     0  0
 24 26  1  0     0  0
 25 27  2  0     0  0
 26 28  2  0     0  0
 27 28  1  0     0  0
 30 37  1  0     0  0
 31 34  1  0     0  0
 32 35  1  0     0  0
 36 37  1  0     0  0
M  END
> <standard_type>
pIC50

> <# Confs.>
25

> <canonical_smiles>
O=C(C1=CN=C(NC2=NC=NC3=C2C=C(OC)C(OCCCN4CCOCC4)=C3)S1)NC5=CC=CC=C5

> <standard_relation>
=

> <Publication_ID>
nan

> <predicted_activity_value>
7.568636235841013

> <actual_activity_value>
7.376750709602099

> <Compound>
13

> <standard_units>
nM

> hash
14816628238382353164

$$$$
12
XXILIB    08252103493D 0   0.00000     0.00000

 37 41  0     1  0            999 V2000
   -7.0206   -1.4280    0.3529 S   0  0  0  0  0  2           0  0  0
    1.3659   -0.0000    0.0000 O   0  0  0  0  0  2           0  0  0
    0.2196   -0.0024    2.3371 O   0  0  0  0  0  2           0  0  0
  -10.3683   -2.7350    1.9188 O   0  0  0  0  0  2           0  0  0
    4.4943   -4.9468   -2.2261 O   0  0  0  0  0  2           0  0  0
   -6.7744   -0.5347    2.7454 N   0  0  0  0  0  3           0  0  0
   -4.9324   -0.0242   -1.0125 N   0  0  0  0  0  3           0  0  0
   -2.8758   -0.0236   -2.2436 N   0  0  0  0  0  3           0  0  0
   -4.9476    0.0220    1.3725 N   0  0  0  0  0  3           0  0  0
   -9.5237   -2.9605   -0.2133 N   0  0  0  0  0  3           0  0  0
    3.7324   -2.4848   -0.9996 N   0  0  2  0  0  3           0  0  0
   -6.1496   -0.5649    1.5832 C   0  0  0  0  0  4           0  0  0
   -8.2888   -1.7625    1.4502 C   0  0  0  0  0  4           0  0  0
    0.0000    0.0000    0.0000 C   0  0  0  0  0  4           0  0  0
   -0.6156   -0.0000    1.2556 C   0  0  0  0  0  4           0  0  0
   -4.2125   -0.0383   -2.1425 C   0  0  0  0  0  4           0  0  0
   -4.2388    0.0212    0.1525 C   0  0  0  0  0  4           0  0  0
   -2.1858   -0.0060   -1.0954 C   0  0  0  0  0  4           0  0  0
   -7.9772   -1.2061    2.6728 C   0  0  0  0  0  4           0  0  0
  -10.5200   -3.7086   -0.8684 C   0  0  0  0  0  4           0  0  0
   -2.8194    0.0078    0.1619 C   0  0  0  0  0  4           0  0  0
   -0.7937   -0.0075   -1.1541 C   0  0  0  0  0  4           0  0  0
   -2.0130    0.0014    1.3293 C   0  0  0  0  0  4           0  0  0
  -11.6866   -4.1318   -0.2199 C   0  0  0  0  0  4           0  0  0
  -10.3233   -4.0320   -2.2160 C   0  0  0  0  0  4           0  0  0
  -12.6443   -4.8716   -0.9171 C   0  0  0  0  0  4           0  0  0
  -11.2836   -4.7718   -2.9079 C   0  0  0  0  0  4           0  0  0
  -12.4433   -5.1918   -2.2589 C   0  0  0  0  0  4           0  0  0
   -9.4754   -2.5141    1.1004 C   0  0  0  0  0  4           0  0  0
    1.9812    0.0000   -1.2882 C   0  0  0  0  0  4           0  0  0
    3.9615   -4.9302   -0.9025 C   0  0  0  0  0  4           0  0  0
    3.9420   -3.8879   -3.0077 C   0  0  0  0  0  4           0  0  0
   -0.4267   -0.0023    3.6083 C   0  0  0  0  0  4           0  0  0
    4.2805   -3.6046   -0.2181 C   0  0  0  0  0  4           0  0  0
    4.2580   -2.5356   -2.3743 C   0  0  0  0  0  4           0  0  0
    4.0395   -1.2091   -0.3473 C   0  0  0  0  0  4           0  0  0
    3.4948   -0.0000   -1.1130 C   0  0  0  0  0  4           0  0  0
  1 12  1  0     0  0
  1 13  1  0     0  0
  2 14  1  0     0  0
  2 30  1  0     0  0
  3 15  1  0     0  0
  3 33  1  0     0  0
  4 29  2  0     0  0
  5 31  1  0     0  0
  5 32  1  0     0  0
  6 12  2  0     0  0
  6 19  1  0     0  0
  7 16  1  0     0  0
  7 17  2  0     0  0
  8 16  2  0     0  0
  8 18  1  0     0  0
  9 12  1  0     0  0
  9 17  1  0     0  0
 10 20  1  0     0  0
 10 29  1  0     0  0
 11 34  1  0     0  0
 11 35  1  0     0  0
 11 36  1  0     0  0
 13 19  2  0     0  0
 13 29  1  0     0  0
 14 15  1  0     0  0
 14 22  2  0     0  0
 15 23  2  0     0  0
 17 21  1  0     0  0
 18 21  2  0     0  0
 18 22  1  0     0  0
 20 24  2  0     0  0
 20 25  1  0     0  0
 21 23  1  0     0  0
 24 26  1  0     0  0
 25 27  2  0     0  0
 26 28  2  0     0  0
 27 28  1  0     0  0
 30 37  1  0     0  0
 31 34  1  0     0  0
 32 35  1  0     0  0
 36 37  1  0     0  0
M  END
> <standard_type>
pIC50

> <# Confs.>
25

> <canonical_smiles>
O=C(C1=CN=C(NC2=NC=NC3=C2C=C(OC)C(OCCCN4CCOCC4)=C3)S1)NC5=CC=CC=C5

> <standard_relation>
=

> <Publication_ID>
nan

> <predicted_activity_value>
7.568636235841013

> <actual_activity_value>
7.376750709602099

> <Compound>
13

> <standard_units>
nM

> hash
14816628238382353164

$$$$
12
XXILIB    08252103493D 0   0.00000     0.00000

 37 41  0     1  0            999 V2000
   -6.8098    1.8818    0.6563 S   0  0  0  0  0  2           0  0  0
    1.3659   -0.0000    0.0000 O   0  0  0  0  0  2           0  0  0
    0.2196   -0.0024    2.3371 O   0  0  0  0  0  2           0  0  0
  -10.4391    2.6319    1.9342 O   0  0  0  0  0  2           0  0  0
    8.1037   -2.2718   -0.5942 O   0  0  0  0  0  2           0  0  0
   -7.0353    0.0660    2.4549 N   0  0  0  0  0  3           0  0  0
   -4.9324   -0.0242   -1.0125 N   0  0  0  0  0  3           0  0  0
   -2.8758   -0.0236   -2.2436 N   0  0  0  0  0  3           0  0  0
   -4.9476    0.0220    1.3725 N   0  0  0  0  0  3           0  0  0
   -9.1843    3.6617    0.2986 N   0  0  0  0  0  3           0  0  0
    5.4967   -1.1804   -0.1952 N   0  0  2  0  0  3           0  0  0
   -6.1855    0.5372    1.5617 C   0  0  0  0  0  4           0  0  0
   -8.2835    1.8121    1.5212 C   0  0  0  0  0  4           0  0  0
    0.0000    0.0000   -0.0000 C   0  0  0  0  0  4           0  0  0
   -0.6156   -0.0000    1.2556 C   0  0  0  0  0  4           0  0  0
   -4.2125   -0.0383   -2.1425 C   0  0  0  0  0  4           0  0  0
   -4.2388    0.0212    0.1525 C   0  0  0  0  0  4           0  0  0
   -2.1858   -0.0060   -1.0954 C   0  0  0  0  0  4           0  0  0
   -8.2145    0.7815    2.4347 C   0  0  0  0  0  4           0  0  0
  -10.0461    4.6716   -0.1693 C   0  0  0  0  0  4           0  0  0
   -2.8194    0.0078    0.1619 C   0  0  0  0  0  4           0  0  0
   -0.7937   -0.0075   -1.1541 C   0  0  0  0  0  4           0  0  0
   -2.0130    0.0014    1.3293 C   0  0  0  0  0  4           0  0  0
  -11.3313    4.8608    0.3533 C   0  0  0  0  0  4           0  0  0
   -9.5870    5.5089   -1.1927 C   0  0  0  0  0  4           0  0  0
  -12.1459    5.8791   -0.1468 C   0  0  0  0  0  4           0  0  0
  -10.4055    6.5249   -1.6890 C   0  0  0  0  0  4           0  0  0
  -11.6844    6.7098   -1.1667 C   0  0  0  0  0  4           0  0  0
   -9.3926    2.7132    1.2907 C   0  0  0  0  0  4           0  0  0
    1.9812    0.0000   -1.2882 C   0  0  0  0  0  4           0  0  0
    7.6657   -1.1442   -1.3512 C   0  0  0  0  0  4           0  0  0
    7.5077   -2.2735    0.7027 C   0  0  0  0  0  4           0  0  0
   -0.4267   -0.0023    3.6083 C   0  0  0  0  0  4           0  0  0
    6.1491   -1.1706   -1.5141 C   0  0  0  0  0  4           0  0  0
    5.9862   -2.3251    0.5913 C   0  0  0  0  0  4           0  0  0
    4.0395   -1.2091   -0.3473 C   0  0  0  0  0  4           0  0  0
    3.4948   -0.0000   -1.1130 C   0  0  0  0  0  4           0  0  0
  1 12  1  0     0  0
  1 13  1  0     0  0
  2 14  1  0     0  0
  2 30  1  0     0  0
  3 15  1  0     0  0
  3 33  1  0     0  0
  4 29  2  0     0  0
  5 31  1  0     0  0
  5 32  1  0     0  0
  6 12  2  0     0  0
  6 19  1  0     0  0
  7 16  1  0     0  0
  7 17  2  0     0  0
  8 16  2  0     0  0
  8 18  1  0     0  0
  9 12  1  0     0  0
  9 17  1  0     0  0
 10 20  1  0     0  0
 10 29  1  0     0  0
 11 34  1  0     0  0
 11 35  1  0     0  0
 11 36  1  0     0  0
 13 19  2  0     0  0
 13 29  1  0     0  0
 14 15  1  0     0  0
 14 22  2  0     0  0
 15 23  2  0     0  0
 17 21  1  0     0  0
 18 21  2  0     0  0
 18 22  1  0     0  0
 20 24  2  0     0  0
 20 25  1  0     0  0
 21 23  1  0     0  0
 24 26  1  0     0  0
 25 27  2  0     0  0
 26 28  2  0     0  0
 27 28  1  0     0  0
 30 37  1  0     0  0
 31 34  1  0     0  0
 32 35  1  0     0  0
 36 37  1  0     0  0
M  END
> <standard_type>
pIC50

> <# Confs.>
25

> <canonical_smiles>
O=C(C1=CN=C(NC2=NC=NC3=C2C=C(OC)C(OCCCN4CCOCC4)=C3)S1)NC5=CC=CC=C5

> <standard_relation>
=

> <Publication_ID>
nan

> <predicted_activity_value>
7.568636235841013

> <actual_activity_value>
7.376750709602099

> <Compound>
13

> <standard_units>
nM

> hash
14816628238382353164

$$$$
12
XXILIB    08252103493D 0   0.00000     0.00000

 37 41  0     1  0            999 V2000
   -6.8098    1.8818    0.6563 S   0  0  0  0  0  2           0  0  0
    1.3659    0.0000    0.0000 O   0  0  0  0  0  2           0  0  0
    0.2196   -0.0024    2.3371 O   0  0  0  0  0  2           0  0  0
  -10.4391    2.6319    1.9342 O   0  0  0  0  0  2           0  0  0
    6.3695    4.9377    1.2239 O   0  0  0  0  0  2           0  0  0
   -7.0353    0.0660    2.4549 N   0  0  0  0  0  3           0  0  0
   -4.9324   -0.0242   -1.0125 N   0  0  0  0  0  3           0  0  0
   -2.8758   -0.0236   -2.2436 N   0  0  0  0  0  3           0  0  0
   -4.9476    0.0220    1.3725 N   0  0  0  0  0  3           0  0  0
   -9.1843    3.6617    0.2986 N   0  0  0  0  0  3           0  0  0
    4.5237    2.7929    0.8504 N   0  0  2  0  0  3           0  0  0
   -6.1855    0.5372    1.5617 C   0  0  0  0  0  4           0  0  0
   -8.2835    1.8121    1.5212 C   0  0  0  0  0  4           0  0  0
    0.0000    0.0000   -0.0000 C   0  0  0  0  0  4           0  0  0
   -0.6156   -0.0000    1.2556 C   0  0  0  0  0  4           0  0  0
   -4.2125   -0.0383   -2.1425 C   0  0  0  0  0  4           0  0  0
   -4.2388    0.0212    0.1525 C   0  0  0  0  0  4           0  0  0
   -2.1858   -0.0060   -1.0954 C   0  0  0  0  0  4           0  0  0
   -8.2145    0.7815    2.4347 C   0  0  0  0  0  4           0  0  0
  -10.0461    4.6716   -0.1693 C   0  0  0  0  0  4           0  0  0
   -2.8194    0.0078    0.1619 C   0  0  0  0  0  4           0  0  0
   -0.7937   -0.0075   -1.1541 C   0  0  0  0  0  4           0  0  0
   -2.0130    0.0014    1.3293 C   0  0  0  0  0  4           0  0  0
  -11.3313    4.8608    0.3533 C   0  0  0  0  0  4           0  0  0
   -9.5870    5.5089   -1.1927 C   0  0  0  0  0  4           0  0  0
  -12.1459    5.8791   -0.1468 C   0  0  0  0  0  4           0  0  0
  -10.4055    6.5249   -1.6890 C   0  0  0  0  0  4           0  0  0
  -11.6844    6.7098   -1.1667 C   0  0  0  0  0  4           0  0  0
   -9.3926    2.7132    1.2907 C   0  0  0  0  0  4           0  0  0
    1.9812    0.6441   -1.1156 C   0  0  0  0  0  4           0  0  0
    5.7198    4.3365    2.3432 C   0  0  0  0  0  4           0  0  0
    6.5680    3.9836    0.1812 C   0  0  0  0  0  4           0  0  0
   -0.4267   -0.0023    3.6083 C   0  0  0  0  0  4           0  0  0
    4.3613    3.7776    1.9317 C   0  0  0  0  0  4           0  0  0
    5.2304    3.4132   -0.2829 C   0  0  0  0  0  4           0  0  0
    3.2204    2.2559    0.4498 C   0  0  0  0  0  4           0  0  0
    3.3205    1.2222   -0.6757 C   0  0  0  0  0  4           0  0  0
  1 12  1  0     0  0
  1 13  1  0     0  0
  2 14  1  0     0  0
  2 30  1  0     0  0
  3 15  1  0     0  0
  3 33  1  0     0  0
  4 29  2  0     0  0
  5 31  1  0     0  0
  5 32  1  0     0  0
  6 12  2  0     0  0
  6 19  1  0     0  0
  7 16  1  0     0  0
  7 17  2  0     0  0
  8 16  2  0     0  0
  8 18  1  0     0  0
  9 12  1  0     0  0
  9 17  1  0     0  0
 10 20  1  0     0  0
 10 29  1  0     0  0
 11 34  1  0     0  0
 11 35  1  0     0  0
 11 36  1  0     0  0
 13 19  2  0     0  0
 13 29  1  0     0  0
 14 15  1  0     0  0
 14 22  2  0     0  0
 15 23  2  0     0  0
 17 21  1  0     0  0
 18 21  2  0     0  0
 18 22  1  0     0  0
 20 24  2  0     0  0
 20 25  1  0     0  0
 21 23  1  0     0  0
 24 26  1  0     0  0
 25 27  2  0     0  0
 26 28  2  0     0  0
 27 28  1  0     0  0
 30 37  1  0     0  0
 31 34  1  0     0  0
 32 35  1  0     0  0
 36 37  1  0     0  0
M  END
> <standard_type>
pIC50

> <# Confs.>
25

> <canonical_smiles>
O=C(C1=CN=C(NC2=NC=NC3=C2C=C(OC)C(OCCCN4CCOCC4)=C3)S1)NC5=CC=CC=C5

> <standard_relation>
=

> <Publication_ID>
nan

> <predicted_activity_value>
7.568636235841013

> <actual_activity_value>
7.376750709602099

> <Compound>
13

> <standard_units>
nM

> hash
14816628238382353164

$$$$
12
XXILIB    08252103493D 0   0.00000     0.00000

 37 41  0     1  0            999 V2000
   -6.8098    1.8818    0.6563 S   0  0  0  0  0  2           0  0  0
    1.3659   -0.0000   -0.0000 O   0  0  0  0  0  2           0  0  0
    0.2196   -0.0024    2.3371 O   0  0  0  0  0  2           0  0  0
  -10.4391    2.6319    1.9342 O   0  0  0  0  0  2           0  0  0
    8.3274    1.1485   -2.5269 O   0  0  0  0  0  2           0  0  0
   -7.0353    0.0660    2.4549 N   0  0  0  0  0  3           0  0  0
   -4.9324   -0.0242   -1.0125 N   0  0  0  0  0  3           0  0  0
   -2.8758   -0.0236   -2.2436 N   0  0  0  0  0  3           0  0  0
   -4.9476    0.0220    1.3725 N   0  0  0  0  0  3           0  0  0
   -9.1843    3.6617    0.2986 N   0  0  0  0  0  3           0  0  0
    5.7318    0.0000   -2.2262 N   0  0  2  0  0  3           0  0  0
   -6.1855    0.5372    1.5617 C   0  0  0  0  0  4           0  0  0
   -8.2835    1.8121    1.5212 C   0  0  0  0  0  4           0  0  0
    0.0000    0.0000   -0.0000 C   0  0  0  0  0  4           0  0  0
   -0.6156   -0.0000    1.2556 C   0  0  0  0  0  4           0  0  0
   -4.2125   -0.0383   -2.1425 C   0  0  0  0  0  4           0  0  0
   -4.2388    0.0212    0.1525 C   0  0  0  0  0  4           0  0  0
   -2.1858   -0.0060   -1.0954 C   0  0  0  0  0  4           0  0  0
   -8.2145    0.7815    2.4347 C   0  0  0  0  0  4           0  0  0
  -10.0461    4.6716   -0.1693 C   0  0  0  0  0  4           0  0  0
   -2.8194    0.0078    0.1619 C   0  0  0  0  0  4           0  0  0
   -0.7937   -0.0075   -1.1541 C   0  0  0  0  0  4           0  0  0
   -2.0130    0.0014    1.3293 C   0  0  0  0  0  4           0  0  0
  -11.3313    4.8608    0.3533 C   0  0  0  0  0  4           0  0  0
   -9.5870    5.5089   -1.1927 C   0  0  0  0  0  4           0  0  0
  -12.1459    5.8791   -0.1468 C   0  0  0  0  0  4           0  0  0
  -10.4055    6.5249   -1.6890 C   0  0  0  0  0  4           0  0  0
  -11.6844    6.7098   -1.1667 C   0  0  0  0  0  4           0  0  0
   -9.3926    2.7132    1.2907 C   0  0  0  0  0  4           0  0  0
    1.9812    0.0000   -1.2882 C   0  0  0  0  0  4           0  0  0
    7.6561    1.1923   -1.2684 C   0  0  0  0  0  4           0  0  0
    7.9656   -0.0257   -3.2532 C   0  0  0  0  0  4           0  0  0
   -0.4267   -0.0023    3.6083 C   0  0  0  0  0  4           0  0  0
    6.1443    1.1946   -1.4727 C   0  0  0  0  0  4           0  0  0
    6.4603   -0.0555   -3.5048 C   0  0  0  0  0  4           0  0  0
    4.2803    0.0000   -2.4275 C   0  0  0  0  0  4           0  0  0
    3.4948   -0.0000   -1.1130 C   0  0  0  0  0  4           0  0  0
  1 12  1  0     0  0
  1 13  1  0     0  0
  2 14  1  0     0  0
  2 30  1  0     0  0
  3 15  1  0     0  0
  3 33  1  0     0  0
  4 29  2  0     0  0
  5 31  1  0     0  0
  5 32  1  0     0  0
  6 12  2  0     0  0
  6 19  1  0     0  0
  7 16  1  0     0  0
  7 17  2  0     0  0
  8 16  2  0     0  0
  8 18  1  0     0  0
  9 12  1  0     0  0
  9 17  1  0     0  0
 10 20  1  0     0  0
 10 29  1  0     0  0
 11 34  1  0     0  0
 11 35  1  0     0  0
 11 36  1  0     0  0
 13 19  2  0     0  0
 13 29  1  0     0  0
 14 15  1  0     0  0
 14 22  2  0     0  0
 15 23  2  0     0  0
 17 21  1  0     0  0
 18 21  2  0     0  0
 18 22  1  0     0  0
 20 24  2  0     0  0
 20 25  1  0     0  0
 21 23  1  0     0  0
 24 26  1  0     0  0
 25 27  2  0     0  0
 26 28  2  0     0  0
 27 28  1  0     0  0
 30 37  1  0     0  0
 31 34  1  0     0  0
 32 35  1  0     0  0
 36 37  1  0     0  0
M  END
> <standard_type>
pIC50

> <# Confs.>
25

> <canonical_smiles>
O=C(C1=CN=C(NC2=NC=NC3=C2C=C(OC)C(OCCCN4CCOCC4)=C3)S1)NC5=CC=CC=C5

> <standard_relation>
=

> <Publication_ID>
nan

> <predicted_activity_value>
7.568636235841013

> <actual_activity_value>
7.376750709602099

> <Compound>
13

> <standard_units>
nM

> hash
14816628238382353164

$$$$
12
XXILIB    08252103493D 0   0.00000     0.00000

 37 41  0     1  0            999 V2000
   -7.0206   -1.4280    0.3529 S   0  0  0  0  0  2           0  0  0
    1.3659   -0.0000    0.0000 O   0  0  0  0  0  2           0  0  0
    0.2196   -0.0024    2.3371 O   0  0  0  0  0  2           0  0  0
  -10.3683   -2.7350    1.9188 O   0  0  0  0  0  2           0  0  0
    2.0371   -6.2169   -0.3363 O   0  0  0  0  0  2           0  0  0
   -6.7744   -0.5347    2.7454 N   0  0  0  0  0  3           0  0  0
   -4.9324   -0.0242   -1.0125 N   0  0  0  0  0  3           0  0  0
   -2.8758   -0.0236   -2.2436 N   0  0  0  0  0  3           0  0  0
   -4.9476    0.0220    1.3725 N   0  0  0  0  0  3           0  0  0
   -9.5237   -2.9605   -0.2133 N   0  0  0  0  0  3           0  0  0
    2.4052   -3.4184    0.0875 N   0  0  2  0  0  3           0  0  0
   -6.1496   -0.5649    1.5832 C   0  0  0  0  0  4           0  0  0
   -8.2888   -1.7625    1.4502 C   0  0  0  0  0  4           0  0  0
    0.0000    0.0000    0.0000 C   0  0  0  0  0  4           0  0  0
   -0.6156   -0.0000    1.2556 C   0  0  0  0  0  4           0  0  0
   -4.2125   -0.0383   -2.1425 C   0  0  0  0  0  4           0  0  0
   -4.2388    0.0212    0.1525 C   0  0  0  0  0  4           0  0  0
   -2.1858   -0.0060   -1.0954 C   0  0  0  0  0  4           0  0  0
   -7.9772   -1.2061    2.6728 C   0  0  0  0  0  4           0  0  0
  -10.5200   -3.7086   -0.8684 C   0  0  0  0  0  4           0  0  0
   -2.8194    0.0078    0.1619 C   0  0  0  0  0  4           0  0  0
   -0.7937   -0.0075   -1.1541 C   0  0  0  0  0  4           0  0  0
   -2.0130    0.0014    1.3293 C   0  0  0  0  0  4           0  0  0
  -11.6866   -4.1318   -0.2199 C   0  0  0  0  0  4           0  0  0
  -10.3233   -4.0320   -2.2160 C   0  0  0  0  0  4           0  0  0
  -12.6443   -4.8716   -0.9171 C   0  0  0  0  0  4           0  0  0
  -11.2836   -4.7718   -2.9079 C   0  0  0  0  0  4           0  0  0
  -12.4433   -5.1918   -2.2589 C   0  0  0  0  0  4           0  0  0
   -9.4754   -2.5141    1.1004 C   0  0  0  0  0  4           0  0  0
    1.9812   -0.6441   -1.1156 C   0  0  0  0  0  4           0  0  0
    1.5010   -5.5822    0.8239 C   0  0  0  0  0  4           0  0  0
    2.0635   -5.3137   -1.4410 C   0  0  0  0  0  4           0  0  0
   -0.4267   -0.0023    3.6083 C   0  0  0  0  0  4           0  0  0
    2.3476   -4.3722    1.2065 C   0  0  0  0  0  4           0  0  0
    2.9222   -4.0948   -1.1141 C   0  0  0  0  0  4           0  0  0
    3.2204   -2.2559    0.4498 C   0  0  0  0  0  4           0  0  0
    3.3205   -1.2222   -0.6757 C   0  0  0  0  0  4           0  0  0
  1 12  1  0     0  0
  1 13  1  0     0  0
  2 14  1  0     0  0
  2 30  1  0     0  0
  3 15  1  0     0  0
  3 33  1  0     0  0
  4 29  2  0     0  0
  5 31  1  0     0  0
  5 32  1  0     0  0
  6 12  2  0     0  0
  6 19  1  0     0  0
  7 16  1  0     0  0
  7 17  2  0     0  0
  8 16  2  0     0  0
  8 18  1  0     0  0
  9 12  1  0     0  0
  9 17  1  0     0  0
 10 20  1  0     0  0
 10 29  1  0     0  0
 11 34  1  0     0  0
 11 35  1  0     0  0
 11 36  1  0     0  0
 13 19  2  0     0  0
 13 29  1  0     0  0
 14 15  1  0     0  0
 14 22  2  0     0  0
 15 23  2  0     0  0
 17 21  1  0     0  0
 18 21  2  0     0  0
 18 22  1  0     0  0
 20 24  2  0     0  0
 20 25  1  0     0  0
 21 23  1  0     0  0
 24 26  1  0     0  0
 25 27  2  0     0  0
 26 28  2  0     0  0
 27 28  1  0     0  0
 30 37  1  0     0  0
 31 34  1  0     0  0
 32 35  1  0     0  0
 36 37  1  0     0  0
M  END
> <standard_type>
pIC50

> <# Confs.>
25

> <canonical_smiles>
O=C(C1=CN=C(NC2=NC=NC3=C2C=C(OC)C(OCCCN4CCOCC4)=C3)S1)NC5=CC=CC=C5

> <standard_relation>
=

> <Publication_ID>
nan

> <predicted_activity_value>
7.568636235841013

> <actual_activity_value>
7.376750709602099

> <Compound>
13

> <standard_units>
nM

> hash
14816628238382353164

$$$$
12
XXILIB    08252103493D 0   0.00000     0.00000

 37 41  0     1  0            999 V2000
   -6.8098    1.8818    0.6563 S   0  0  0  0  0  2           0  0  0
    1.3659   -0.0000   -0.0000 O   0  0  0  0  0  2           0  0  0
    0.2196   -0.0024    2.3371 O   0  0  0  0  0  2           0  0  0
  -10.4391    2.6319    1.9342 O   0  0  0  0  0  2           0  0  0
    6.5010   -2.2692   -2.7741 O   0  0  0  0  0  2           0  0  0
   -7.0353    0.0660    2.4549 N   0  0  0  0  0  3           0  0  0
   -4.9324   -0.0242   -1.0125 N   0  0  0  0  0  3           0  0  0
   -2.8758   -0.0236   -2.2436 N   0  0  0  0  0  3           0  0  0
   -4.9476    0.0220    1.3725 N   0  0  0  0  0  3           0  0  0
   -9.1843    3.6617    0.2986 N   0  0  0  0  0  3           0  0  0
    4.6474   -0.8442   -1.1370 N   0  0  2  0  0  3           0  0  0
   -6.1855    0.5372    1.5617 C   0  0  0  0  0  4           0  0  0
   -8.2835    1.8121    1.5212 C   0  0  0  0  0  4           0  0  0
    0.0000    0.0000   -0.0000 C   0  0  0  0  0  4           0  0  0
   -0.6156   -0.0000    1.2556 C   0  0  0  0  0  4           0  0  0
   -4.2125   -0.0383   -2.1425 C   0  0  0  0  0  4           0  0  0
   -4.2388    0.0212    0.1525 C   0  0  0  0  0  4           0  0  0
   -2.1858   -0.0060   -1.0954 C   0  0  0  0  0  4           0  0  0
   -8.2145    0.7815    2.4347 C   0  0  0  0  0  4           0  0  0
  -10.0461    4.6716   -0.1693 C   0  0  0  0  0  4           0  0  0
   -2.8194    0.0078    0.1619 C   0  0  0  0  0  4           0  0  0
   -0.7937   -0.0075   -1.1541 C   0  0  0  0  0  4           0  0  0
   -2.0130    0.0014    1.3293 C   0  0  0  0  0  4           0  0  0
  -11.3313    4.8608    0.3533 C   0  0  0  0  0  4           0  0  0
   -9.5870    5.5089   -1.1927 C   0  0  0  0  0  4           0  0  0
  -12.1459    5.8791   -0.1468 C   0  0  0  0  0  4           0  0  0
  -10.4055    6.5249   -1.6890 C   0  0  0  0  0  4           0  0  0
  -11.6844    6.7098   -1.1667 C   0  0  0  0  0  4           0  0  0
   -9.3926    2.7132    1.2907 C   0  0  0  0  0  4           0  0  0
    1.9812    0.6441   -1.1156 C   0  0  0  0  0  4           0  0  0
    5.9498   -2.8754   -1.6057 C   0  0  0  0  0  4           0  0  0
    5.5719   -1.3560   -3.3570 C   0  0  0  0  0  4           0  0  0
   -0.4267   -0.0023    3.6083 C   0  0  0  0  0  4           0  0  0
    5.6003   -1.8114   -0.5699 C   0  0  0  0  0  4           0  0  0
    5.2102   -0.2549   -2.3636 C   0  0  0  0  0  4           0  0  0
    4.3114    0.1818   -0.1461 C   0  0  0  0  0  4           0  0  0
    3.3205    1.2222   -0.6757 C   0  0  0  0  0  4           0  0  0
  1 12  1  0     0  0
  1 13  1  0     0  0
  2 14  1  0     0  0
  2 30  1  0     0  0
  3 15  1  0     0  0
  3 33  1  0     0  0
  4 29  2  0     0  0
  5 31  1  0     0  0
  5 32  1  0     0  0
  6 12  2  0     0  0
  6 19  1  0     0  0
  7 16  1  0     0  0
  7 17  2  0     0  0
  8 16  2  0     0  0
  8 18  1  0     0  0
  9 12  1  0     0  0
  9 17  1  0     0  0
 10 20  1  0     0  0
 10 29  1  0     0  0
 11 34  1  0     0  0
 11 35  1  0     0  0
 11 36  1  0     0  0
 13 19  2  0     0  0
 13 29  1  0     0  0
 14 15  1  0     0  0
 14 22  2  0     0  0
 15 23  2  0     0  0
 17 21  1  0     0  0
 18 21  2  0     0  0
 18 22  1  0     0  0
 20 24  2  0     0  0
 20 25  1  0     0  0
 21 23  1  0     0  0
 24 26  1  0     0  0
 25 27  2  0     0  0
 26 28  2  0     0  0
 27 28  1  0     0  0
 30 37  1  0     0  0
 31 34  1  0     0  0
 32 35  1  0     0  0
 36 37  1  0     0  0
M  END
> <standard_type>
pIC50

> <# Confs.>
25

> <canonical_smiles>
O=C(C1=CN=C(NC2=NC=NC3=C2C=C(OC)C(OCCCN4CCOCC4)=C3)S1)NC5=CC=CC=C5

> <standard_relation>
=

> <Publication_ID>
nan

> <predicted_activity_value>
7.568636235841013

> <actual_activity_value>
7.376750709602099

> <Compound>
13

> <standard_units>
nM

> hash
14816628238382353164

$$$$
1
XXILIB    08252103493D 0   0.00000     0.00000

 41 45  0     1  0            999 V2000
   -7.2332   -0.4203    2.2023 S   0  0  0  0  0  2           0  0  0
  -14.3587    3.4541    0.3448 F   0  0  0  0  0  1           0  0  0
    1.3665    0.0000    0.0000 O   0  0  0  0  0  2           0  0  0
   -0.2265    0.0177    2.3956 O   0  0  0  0  0  2           0  0  0
  -11.4107   -2.3597    0.6972 O   0  0  0  0  0  2           0  0  0
    7.4621    3.0949    6.1131 O   0  0  0  0  0  2           0  0  0
   -6.8922   -1.2910   -0.1929 N   0  0  0  0  0  3           0  0  0
   -4.7413   -0.1329   -1.6762 N   0  0  0  0  0  3           0  0  0
   -2.5341   -0.1745   -2.6127 N   0  0  0  0  0  3           0  0  0
   -5.0858    0.0071    0.6803 N   0  0  0  0  0  3           0  0  0
  -11.4350   -0.1535    1.4289 N   0  0  0  0  0  3           0  0  0
    6.2491    2.1865    4.2101 N   0  0  2  0  0  3           0  0  0
    4.3975    2.3992    1.9966 N   0  0  2  0  0  3           0  0  0
   -6.3032   -0.5809    0.7509 C   0  0  0  0  0  4           0  0  0
   -8.4901   -1.3570    1.5128 C   0  0  0  0  0  4           0  0  0
  -14.0132    2.1688    0.1861 C   0  0  0  0  0  4           0  0  0
    0.0000    0.0000    0.0000 C   0  0  0  0  0  4           0  0  0
   -0.7842   -0.0000    1.1485 C   0  0  0  0  0  4           0  0  0
   -3.8723   -0.1927   -2.6948 C   0  0  0  0  0  4           0  0  0
   -4.2160   -0.0351   -0.4296 C   0  0  0  0  0  4           0  0  0
   -2.0092   -0.0989   -1.3832 C   0  0  0  0  0  4           0  0  0
   -8.1294   -1.7265    0.2349 C   0  0  0  0  0  4           0  0  0
  -12.5485    0.3244    0.7133 C   0  0  0  0  0  4           0  0  0
   -2.8125   -0.0368   -0.2252 C   0  0  0  0  0  4           0  0  0
  -12.9113    1.6657    0.8742 C   0  0  0  0  0  4           0  0  0
  -14.7615    1.3604   -0.6631 C   0  0  0  0  0  4           0  0  0
   -0.6223   -0.0813   -1.2484 C   0  0  0  0  0  4           0  0  0
   -2.1764    0.0066    1.0400 C   0  0  0  0  0  4           0  0  0
  -13.2968   -0.4949   -0.1430 C   0  0  0  0  0  4           0  0  0
  -14.3996    0.0254   -0.8273 C   0  0  0  0  0  4           0  0  0
  -10.9476   -1.4478    1.3815 C   0  0  0  0  0  4           0  0  0
    6.6540    2.0355    5.6054 C   0  0  0  0  0  4           0  0  0
    1.9797    1.1167    0.6447 C   0  0  0  0  0  4           0  0  0
    0.0385   -1.2629    2.9630 C   0  0  0  0  0  4           0  0  0
    5.4656    3.4065    3.9941 C   0  0  0  0  0  4           0  0  0
    5.5200    1.0135    3.7190 C   0  0  0  0  0  4           0  0  0
    5.1278    3.5693    2.5081 C   0  0  0  0  0  4           0  0  0
    5.1786    1.1743    2.2329 C   0  0  0  0  0  4           0  0  0
    4.0809    2.5783    0.5762 C   0  0  0  0  0  4           0  0  0
   -9.7372   -1.6547    2.2634 C   0  0  0  0  0  4           0  0  0
    3.3185    1.3961   -0.0268 C   0  0  0  0  0  4           0  0  0
  1 14  1  0     0  0
  1 15  1  0     0  0
  2 16  1  0     0  0
  3 17  1  0     0  0
  3 33  1  0     0  0
  4 18  1  0     0  0
  4 34  1  0     0  0
  5 31  2  0     0  0
  6 32  1  0     0  0
  7 14  2  0     0  0
  7 22  1  0     0  0
  8 19  1  0     0  0
  8 20  2  0     0  0
  9 19  2  0     0  0
  9 21  1  0     0  0
 10 14  1  0     0  0
 10 20  1  0     0  0
 11 23  1  0     0  0
 11 31  1  0     0  0
 12 32  1  0     0  0
 12 35  1  0     0  0
 12 36  1  0     0  0
 13 37  1  0     0  0
 13 38  1  0     0  0
 13 39  1  0     0  0
 15 22  2  0     0  0
 15 40  1  0     0  0
 16 25  2  0     0  0
 16 26  1  0     0  0
 17 18  2  0     0  0
 17 27  1  0     0  0
 18 28  1  0     0  0
 20 24  1  0     0  0
 21 24  1  0     0  0
 21 27  2  0     0  0
 23 25  1  0     0  0
 23 29  2  0     0  0
 24 28  2  0     0  0
 26 30  2  0     0  0
 29 30  1  0     0  0
 31 40  1  0     0  0
 33 41  1  0     0  0
 35 37  1  0     0  0
 36 38  1  0     0  0
 39 41  1  0     0  0
M  END
> <standard_type>
pIC50

> <# Confs.>
25

> <canonical_smiles>
FC1=CC(NC(CC2=CN=C(NC(C3=C4)=NC=NC3=CC(OCCCN5CCN(CO)CC5)=C4OC)S2)=O)=CC=C1

> <standard_relation>
=

> <Publication_ID>
nan

> <predicted_activity_value>
8.080921907623926

> <actual_activity_value>
8.154901959985743

> <Compound>
2

> <standard_units>
nM

> hash
10397007601345888930

$$$$
1
XXILIB    08252103493D 0   0.00000     0.00000

 41 45  0     1  0            999 V2000
   -7.2332   -0.4203    2.2023 S   0  0  0  0  0  2           0  0  0
  -11.9157    4.6369    4.8730 F   0  0  0  0  0  1           0  0  0
    1.3665    0.0000    0.0000 O   0  0  0  0  0  2           0  0  0
   -0.2265    0.0177    2.3956 O   0  0  0  0  0  2           0  0  0
  -11.5799   -0.6700    1.0863 O   0  0  0  0  0  2           0  0  0
    7.4621    3.0949    6.1131 O   0  0  0  0  0  2           0  0  0
   -6.8922   -1.2910   -0.1929 N   0  0  0  0  0  3           0  0  0
   -4.7413   -0.1329   -1.6762 N   0  0  0  0  0  3           0  0  0
   -2.5341   -0.1745   -2.6127 N   0  0  0  0  0  3           0  0  0
   -5.0858    0.0071    0.6803 N   0  0  0  0  0  3           0  0  0
  -10.6925    0.4674    2.9089 N   0  0  0  0  0  3           0  0  0
    6.2491    2.1865    4.2101 N   0  0  2  0  0  3           0  0  0
    4.3975    2.3992    1.9966 N   0  0  2  0  0  3           0  0  0
   -6.3032   -0.5809    0.7509 C   0  0  0  0  0  4           0  0  0
   -8.4901   -1.3570    1.5128 C   0  0  0  0  0  4           0  0  0
  -12.1253    3.7054    3.9323 C   0  0  0  0  0  4           0  0  0
    0.0000    0.0000    0.0000 C   0  0  0  0  0  4           0  0  0
   -0.7842   -0.0000    1.1485 C   0  0  0  0  0  4           0  0  0
   -3.8723   -0.1927   -2.6948 C   0  0  0  0  0  4           0  0  0
   -4.2160   -0.0351   -0.4296 C   0  0  0  0  0  4           0  0  0
   -2.0092   -0.0989   -1.3832 C   0  0  0  0  0  4           0  0  0
   -8.1294   -1.7265    0.2349 C   0  0  0  0  0  4           0  0  0
  -11.5279    1.5999    2.9149 C   0  0  0  0  0  4           0  0  0
   -2.8125   -0.0368   -0.2252 C   0  0  0  0  0  4           0  0  0
  -11.3112    2.5755    3.8936 C   0  0  0  0  0  4           0  0  0
  -13.1524    3.8839    3.0114 C   0  0  0  0  0  4           0  0  0
   -0.6223   -0.0813   -1.2484 C   0  0  0  0  0  4           0  0  0
   -2.1764    0.0066    1.0400 C   0  0  0  0  0  4           0  0  0
  -12.5594    1.7751    1.9823 C   0  0  0  0  0  4           0  0  0
  -13.3673    2.9152    2.0340 C   0  0  0  0  0  4           0  0  0
  -10.7742   -0.5836    2.0124 C   0  0  0  0  0  4           0  0  0
    6.6540    2.0355    5.6054 C   0  0  0  0  0  4           0  0  0
    1.9797    1.1167    0.6447 C   0  0  0  0  0  4           0  0  0
    0.0385   -1.2629    2.9630 C   0  0  0  0  0  4           0  0  0
    5.4656    3.4065    3.9941 C   0  0  0  0  0  4           0  0  0
    5.5200    1.0135    3.7190 C   0  0  0  0  0  4           0  0  0
    5.1278    3.5693    2.5081 C   0  0  0  0  0  4           0  0  0
    5.1786    1.1743    2.2329 C   0  0  0  0  0  4           0  0  0
    4.0809    2.5783    0.5762 C   0  0  0  0  0  4           0  0  0
   -9.7372   -1.6547    2.2634 C   0  0  0  0  0  4           0  0  0
    3.3185    1.3961   -0.0268 C   0  0  0  0  0  4           0  0  0
  1 14  1  0     0  0
  1 15  1  0     0  0
  2 16  1  0     0  0
  3 17  1  0     0  0
  3 33  1  0     0  0
  4 18  1  0     0  0
  4 34  1  0     0  0
  5 31  2  0     0  0
  6 32  1  0     0  0
  7 14  2  0     0  0
  7 22  1  0     0  0
  8 19  1  0     0  0
  8 20  2  0     0  0
  9 19  2  0     0  0
  9 21  1  0     0  0
 10 14  1  0     0  0
 10 20  1  0     0  0
 11 23  1  0     0  0
 11 31  1  0     0  0
 12 32  1  0     0  0
 12 35  1  0     0  0
 12 36  1  0     0  0
 13 37  1  0     0  0
 13 38  1  0     0  0
 13 39  1  0     0  0
 15 22  2  0     0  0
 15 40  1  0     0  0
 16 25  2  0     0  0
 16 26  1  0     0  0
 17 18  2  0     0  0
 17 27  1  0     0  0
 18 28  1  0     0  0
 20 24  1  0     0  0
 21 24  1  0     0  0
 21 27  2  0     0  0
 23 25  1  0     0  0
 23 29  2  0     0  0
 24 28  2  0     0  0
 26 30  2  0     0  0
 29 30  1  0     0  0
 31 40  1  0     0  0
 33 41  1  0     0  0
 35 37  1  0     0  0
 36 38  1  0     0  0
 39 41  1  0     0  0
M  END
> <standard_type>
pIC50

> <# Confs.>
25

> <canonical_smiles>
FC1=CC(NC(CC2=CN=C(NC(C3=C4)=NC=NC3=CC(OCCCN5CCN(CO)CC5)=C4OC)S2)=O)=CC=C1

> <standard_relation>
=

> <Publication_ID>
nan

> <predicted_activity_value>
8.080921907623926

> <actual_activity_value>
8.154901959985743

> <Compound>
2

> <standard_units>
nM

> hash
10397007601345888930

$$$$
1
XXILIB    08252103493D 0   0.00000     0.00000

 41 45  0     1  0            999 V2000
   -7.2332   -0.4203    2.2023 S   0  0  0  0  0  2           0  0  0
   -7.6621   -3.9741    8.7019 F   0  0  0  0  0  1           0  0  0
    1.3665    0.0000    0.0000 O   0  0  0  0  0  2           0  0  0
   -0.2265    0.0177    2.3956 O   0  0  0  0  0  2           0  0  0
   -9.8880   -4.0289    2.5653 O   0  0  0  0  0  2           0  0  0
    7.4621    3.0949    6.1131 O   0  0  0  0  0  2           0  0  0
   -6.8922   -1.2910   -0.1929 N   0  0  0  0  0  3           0  0  0
   -4.7413   -0.1329   -1.6762 N   0  0  0  0  0  3           0  0  0
   -2.5341   -0.1745   -2.6127 N   0  0  0  0  0  3           0  0  0
   -5.0858    0.0071    0.6803 N   0  0  0  0  0  3           0  0  0
   -9.1087   -2.7332    4.3308 N   0  0  0  0  0  3           0  0  0
    6.2491    2.1865    4.2101 N   0  0  2  0  0  3           0  0  0
    4.3975    2.3992    1.9966 N   0  0  2  0  0  3           0  0  0
   -6.3032   -0.5809    0.7509 C   0  0  0  0  0  4           0  0  0
   -8.4901   -1.3570    1.5128 C   0  0  0  0  0  4           0  0  0
   -8.1318   -4.3397    7.5010 C   0  0  0  0  0  4           0  0  0
    0.0000    0.0000    0.0000 C   0  0  0  0  0  4           0  0  0
   -0.7842   -0.0000    1.1485 C   0  0  0  0  0  4           0  0  0
   -3.8723   -0.1927   -2.6948 C   0  0  0  0  0  4           0  0  0
   -4.2160   -0.0351   -0.4296 C   0  0  0  0  0  4           0  0  0
   -2.0092   -0.0989   -1.3832 C   0  0  0  0  0  4           0  0  0
   -8.1294   -1.7265    0.2349 C   0  0  0  0  0  4           0  0  0
   -8.8721   -3.7422    5.2828 C   0  0  0  0  0  4           0  0  0
   -2.8125   -0.0368   -0.2252 C   0  0  0  0  0  4           0  0  0
   -8.3840   -3.3649    6.5382 C   0  0  0  0  0  4           0  0  0
   -8.3589   -5.6865    7.2377 C   0  0  0  0  0  4           0  0  0
   -0.6223   -0.0813   -1.2484 C   0  0  0  0  0  4           0  0  0
   -2.1764    0.0066    1.0400 C   0  0  0  0  0  4           0  0  0
   -9.1056   -5.0974    5.0121 C   0  0  0  0  0  4           0  0  0
   -8.8482   -6.0638    5.9894 C   0  0  0  0  0  4           0  0  0
   -9.5884   -2.9377    3.0490 C   0  0  0  0  0  4           0  0  0
    6.6540    2.0355    5.6054 C   0  0  0  0  0  4           0  0  0
    1.9797    1.1167    0.6447 C   0  0  0  0  0  4           0  0  0
    0.0385   -1.2629    2.9630 C   0  0  0  0  0  4           0  0  0
    5.4656    3.4065    3.9941 C   0  0  0  0  0  4           0  0  0
    5.5200    1.0135    3.7190 C   0  0  0  0  0  4           0  0  0
    5.1278    3.5693    2.5081 C   0  0  0  0  0  4           0  0  0
    5.1786    1.1743    2.2329 C   0  0  0  0  0  4           0  0  0
    4.0809    2.5783    0.5762 C   0  0  0  0  0  4           0  0  0
   -9.7372   -1.6547    2.2634 C   0  0  0  0  0  4           0  0  0
    3.3185    1.3961   -0.0268 C   0  0  0  0  0  4           0  0  0
  1 14  1  0     0  0
  1 15  1  0     0  0
  2 16  1  0     0  0
  3 17  1  0     0  0
  3 33  1  0     0  0
  4 18  1  0     0  0
  4 34  1  0     0  0
  5 31  2  0     0  0
  6 32  1  0     0  0
  7 14  2  0     0  0
  7 22  1  0     0  0
  8 19  1  0     0  0
  8 20  2  0     0  0
  9 19  2  0     0  0
  9 21  1  0     0  0
 10 14  1  0     0  0
 10 20  1  0     0  0
 11 23  1  0     0  0
 11 31  1  0     0  0
 12 32  1  0     0  0
 12 35  1  0     0  0
 12 36  1  0     0  0
 13 37  1  0     0  0
 13 38  1  0     0  0
 13 39  1  0     0  0
 15 22  2  0     0  0
 15 40  1  0     0  0
 16 25  2  0     0  0
 16 26  1  0     0  0
 17 18  2  0     0  0
 17 27  1  0     0  0
 18 28  1  0     0  0
 20 24  1  0     0  0
 21 24  1  0     0  0
 21 27  2  0     0  0
 23 25  1  0     0  0
 23 29  2  0     0  0
 24 28  2  0     0  0
 26 30  2  0     0  0
 29 30  1  0     0  0
 31 40  1  0     0  0
 33 41  1  0     0  0
 35 37  1  0     0  0
 36 38  1  0     0  0
 39 41  1  0     0  0
M  END
> <standard_type>
pIC50

> <# Confs.>
25

> <canonical_smiles>
FC1=CC(NC(CC2=CN=C(NC(C3=C4)=NC=NC3=CC(OCCCN5CCN(CO)CC5)=C4OC)S2)=O)=CC=C1

> <standard_relation>
=

> <Publication_ID>
nan

> <predicted_activity_value>
8.080921907623926

> <actual_activity_value>
8.154901959985743

> <Compound>
2

> <standard_units>
nM

> hash
10397007601345888930

$$$$
1
XXILIB    08252103493D 0   0.00000     0.00000

 41 45  0     1  0            999 V2000
   -7.2332   -0.4203    2.2023 S   0  0  0  0  0  2           0  0  0
   -8.6720   -7.9735    5.4377 F   0  0  0  0  0  1           0  0  0
    1.3665    0.0000    0.0000 O   0  0  0  0  0  2           0  0  0
   -0.2265    0.0177    2.3956 O   0  0  0  0  0  2           0  0  0
  -10.8348   -3.5031    1.2007 O   0  0  0  0  0  2           0  0  0
    7.4621    3.0949    6.1131 O   0  0  0  0  0  2           0  0  0
   -6.8922   -1.2910   -0.1929 N   0  0  0  0  0  3           0  0  0
   -4.7413   -0.1329   -1.6762 N   0  0  0  0  0  3           0  0  0
   -2.5341   -0.1745   -2.6127 N   0  0  0  0  0  3           0  0  0
   -5.0858    0.0071    0.6803 N   0  0  0  0  0  3           0  0  0
   -9.5654   -3.9120    3.1045 N   0  0  0  0  0  3           0  0  0
    6.2491    2.1865    4.2101 N   0  0  2  0  0  3           0  0  0
    4.3975    2.3992    1.9966 N   0  0  2  0  0  3           0  0  0
   -6.3032   -0.5809    0.7509 C   0  0  0  0  0  4           0  0  0
   -8.4901   -1.3570    1.5128 C   0  0  0  0  0  4           0  0  0
   -9.2707   -7.3434    4.4175 C   0  0  0  0  0  4           0  0  0
    0.0000    0.0000    0.0000 C   0  0  0  0  0  4           0  0  0
   -0.7842   -0.0000    1.1485 C   0  0  0  0  0  4           0  0  0
   -3.8723   -0.1927   -2.6948 C   0  0  0  0  0  4           0  0  0
   -4.2160   -0.0351   -0.4296 C   0  0  0  0  0  4           0  0  0
   -2.0092   -0.0989   -1.3832 C   0  0  0  0  0  4           0  0  0
   -8.1294   -1.7265    0.2349 C   0  0  0  0  0  4           0  0  0
   -9.7428   -5.3034    3.2169 C   0  0  0  0  0  4           0  0  0
   -2.8125   -0.0368   -0.2252 C   0  0  0  0  0  4           0  0  0
   -9.1216   -5.9649    4.2815 C   0  0  0  0  0  4           0  0  0
  -10.0302   -8.0775    3.5125 C   0  0  0  0  0  4           0  0  0
   -0.6223   -0.0813   -1.2484 C   0  0  0  0  0  4           0  0  0
   -2.1764    0.0066    1.0400 C   0  0  0  0  0  4           0  0  0
  -10.5117   -6.0370    2.3031 C   0  0  0  0  0  4           0  0  0
  -10.6523   -7.4200    2.4539 C   0  0  0  0  0  4           0  0  0
  -10.1091   -3.1124    2.1145 C   0  0  0  0  0  4           0  0  0
    6.6540    2.0355    5.6054 C   0  0  0  0  0  4           0  0  0
    1.9797    1.1167    0.6447 C   0  0  0  0  0  4           0  0  0
    0.0385   -1.2629    2.9630 C   0  0  0  0  0  4           0  0  0
    5.4656    3.4065    3.9941 C   0  0  0  0  0  4           0  0  0
    5.5200    1.0135    3.7190 C   0  0  0  0  0  4           0  0  0
    5.1278    3.5693    2.5081 C   0  0  0  0  0  4           0  0  0
    5.1786    1.1743    2.2329 C   0  0  0  0  0  4           0  0  0
    4.0809    2.5783    0.5762 C   0  0  0  0  0  4           0  0  0
   -9.7372   -1.6547    2.2634 C   0  0  0  0  0  4           0  0  0
    3.3185    1.3961   -0.0268 C   0  0  0  0  0  4           0  0  0
  1 14  1  0     0  0
  1 15  1  0     0  0
  2 16  1  0     0  0
  3 17  1  0     0  0
  3 33  1  0     0  0
  4 18  1  0     0  0
  4 34  1  0     0  0
  5 31  2  0     0  0
  6 32  1  0     0  0
  7 14  2  0     0  0
  7 22  1  0     0  0
  8 19  1  0     0  0
  8 20  2  0     0  0
  9 19  2  0     0  0
  9 21  1  0     0  0
 10 14  1  0     0  0
 10 20  1  0     0  0
 11 23  1  0     0  0
 11 31  1  0     0  0
 12 32  1  0     0  0
 12 35  1  0     0  0
 12 36  1  0     0  0
 13 37  1  0     0  0
 13 38  1  0     0  0
 13 39  1  0     0  0
 15 22  2  0     0  0
 15 40  1  0     0  0
 16 25  2  0     0  0
 16 26  1  0     0  0
 17 18  2  0     0  0
 17 27  1  0     0  0
 18 28  1  0     0  0
 20 24  1  0     0  0
 21 24  1  0     0  0
 21 27  2  0     0  0
 23 25  1  0     0  0
 23 29  2  0     0  0
 24 28  2  0     0  0
 26 30  2  0     0  0
 29 30  1  0     0  0
 31 40  1  0     0  0
 33 41  1  0     0  0
 35 37  1  0     0  0
 36 38  1  0     0  0
 39 41  1  0     0  0
M  END
> <standard_type>
pIC50

> <# Confs.>
25

> <canonical_smiles>
FC1=CC(NC(CC2=CN=C(NC(C3=C4)=NC=NC3=CC(OCCCN5CCN(CO)CC5)=C4OC)S2)=O)=CC=C1

> <standard_relation>
=

> <Publication_ID>
nan

> <predicted_activity_value>
8.080921907623926

> <actual_activity_value>
8.154901959985743

> <Compound>
2

> <standard_units>
nM

> hash
10397007601345888930

$$$$
1
XXILIB    08252103493D 0   0.00000     0.00000

 41 45  0     1  0            999 V2000
   -7.2332   -0.4203    2.2023 S   0  0  0  0  0  2           0  0  0
  -14.3587    3.4541    0.3448 F   0  0  0  0  0  1           0  0  0
    1.3665   -0.0000   -0.0000 O   0  0  0  0  0  2           0  0  0
   -0.2265    0.0177    2.3956 O   0  0  0  0  0  2           0  0  0
  -11.4107   -2.3597    0.6972 O   0  0  0  0  0  2           0  0  0
    1.2660    7.1436   -4.5553 O   0  0  0  0  0  2           0  0  0
   -6.8922   -1.2910   -0.1929 N   0  0  0  0  0  3           0  0  0
   -4.7413   -0.1329   -1.6762 N   0  0  0  0  0  3           0  0  0
   -2.5341   -0.1745   -2.6127 N   0  0  0  0  0  3           0  0  0
   -5.0858    0.0071    0.6803 N   0  0  0  0  0  3           0  0  0
  -11.4350   -0.1535    1.4289 N   0  0  0  0  0  3           0  0  0
    2.0025    5.5783   -2.8449 N   0  0  2  0  0  3           0  0  0
    2.3915    2.9124   -1.7892 N   0  0  2  0  0  3           0  0  0
   -6.3032   -0.5809    0.7509 C   0  0  0  0  0  4           0  0  0
   -8.4901   -1.3570    1.5128 C   0  0  0  0  0  4           0  0  0
  -14.0132    2.1688    0.1861 C   0  0  0  0  0  4           0  0  0
    0.0000    0.0000    0.0000 C   0  0  0  0  0  4           0  0  0
   -0.7842   -0.0000    1.1485 C   0  0  0  0  0  4           0  0  0
   -3.8723   -0.1927   -2.6948 C   0  0  0  0  0  4           0  0  0
   -4.2160   -0.0351   -0.4296 C   0  0  0  0  0  4           0  0  0
   -2.0092   -0.0989   -1.3832 C   0  0  0  0  0  4           0  0  0
   -8.1294   -1.7265    0.2349 C   0  0  0  0  0  4           0  0  0
  -12.5485    0.3244    0.7133 C   0  0  0  0  0  4           0  0  0
   -2.8125   -0.0368   -0.2252 C   0  0  0  0  0  4           0  0  0
  -12.9113    1.6657    0.8742 C   0  0  0  0  0  4           0  0  0
  -14.7615    1.3604   -0.6631 C   0  0  0  0  0  4           0  0  0
   -0.6223   -0.0813   -1.2484 C   0  0  0  0  0  4           0  0  0
   -2.1764    0.0066    1.0400 C   0  0  0  0  0  4           0  0  0
  -13.2968   -0.4949   -0.1430 C   0  0  0  0  0  4           0  0  0
  -14.3996    0.0254   -0.8273 C   0  0  0  0  0  4           0  0  0
  -10.9476   -1.4478    1.3815 C   0  0  0  0  0  4           0  0  0
    1.2579    6.7912   -3.1737 C   0  0  0  0  0  4           0  0  0
    1.9797    1.1167    0.6447 C   0  0  0  0  0  4           0  0  0
    0.0385   -1.2629    2.9630 C   0  0  0  0  0  4           0  0  0
    1.4760    4.4033   -3.5455 C   0  0  0  0  0  4           0  0  0
    2.0500    5.3369   -1.3999 C   0  0  0  0  0  4           0  0  0
    2.3301    3.1688   -3.2365 C   0  0  0  0  0  4           0  0  0
    2.9022    4.1011   -1.0876 C   0  0  0  0  0  4           0  0  0
    3.2088    1.7258   -1.5173 C   0  0  0  0  0  4           0  0  0
   -9.7372   -1.6547    2.2634 C   0  0  0  0  0  4           0  0  0
    3.3185    1.3961   -0.0268 C   0  0  0  0  0  4           0  0  0
  1 14  1  0     0  0
  1 15  1  0     0  0
  2 16  1  0     0  0
  3 17  1  0     0  0
  3 33  1  0     0  0
  4 18  1  0     0  0
  4 34  1  0     0  0
  5 31  2  0     0  0
  6 32  1  0     0  0
  7 14  2  0     0  0
  7 22  1  0     0  0
  8 19  1  0     0  0
  8 20  2  0     0  0
  9 19  2  0     0  0
  9 21  1  0     0  0
 10 14  1  0     0  0
 10 20  1  0     0  0
 11 23  1  0     0  0
 11 31  1  0     0  0
 12 32  1  0     0  0
 12 35  1  0     0  0
 12 36  1  0     0  0
 13 37  1  0     0  0
 13 38  1  0     0  0
 13 39  1  0     0  0
 15 22  2  0     0  0
 15 40  1  0     0  0
 16 25  2  0     0  0
 16 26  1  0     0  0
 17 18  2  0     0  0
 17 27  1  0     0  0
 18 28  1  0     0  0
 20 24  1  0     0  0
 21 24  1  0     0  0
 21 27  2  0     0  0
 23 25  1  0     0  0
 23 29  2  0     0  0
 24 28  2  0     0  0
 26 30  2  0     0  0
 29 30  1  0     0  0
 31 40  1  0     0  0
 33 41  1  0     0  0
 35 37  1  0     0  0
 36 38  1  0     0  0
 39 41  1  0     0  0
M  END
> <standard_type>
pIC50

> <# Confs.>
25

> <canonical_smiles>
FC1=CC(NC(CC2=CN=C(NC(C3=C4)=NC=NC3=CC(OCCCN5CCN(CO)CC5)=C4OC)S2)=O)=CC=C1

> <standard_relation>
=

> <Publication_ID>
nan

> <predicted_activity_value>
8.080921907623926

> <actual_activity_value>
8.154901959985743

> <Compound>
2

> <standard_units>
nM

> hash
10397007601345888930

$$$$
1
XXILIB    08252103493D 0   0.00000     0.00000

 41 45  0     1  0            999 V2000
   -7.2332   -0.4203    2.2023 S   0  0  0  0  0  2           0  0  0
  -14.3587    3.4541    0.3448 F   0  0  0  0  0  1           0  0  0
    1.3665   -0.0000   -0.0000 O   0  0  0  0  0  2           0  0  0
   -0.2265    0.0177    2.3956 O   0  0  0  0  0  2           0  0  0
  -11.4107   -2.3597    0.6972 O   0  0  0  0  0  2           0  0  0
    5.4025    3.4340    7.4849 O   0  0  0  0  0  2           0  0  0
   -6.8922   -1.2910   -0.1929 N   0  0  0  0  0  3           0  0  0
   -4.7413   -0.1329   -1.6762 N   0  0  0  0  0  3           0  0  0
   -2.5341   -0.1745   -2.6127 N   0  0  0  0  0  3           0  0  0
   -5.0858    0.0071    0.6803 N   0  0  0  0  0  3           0  0  0
  -11.4350   -0.1535    1.4289 N   0  0  0  0  0  3           0  0  0
    4.7708    2.2935    5.4311 N   0  0  2  0  0  3           0  0  0
    3.9871    2.2497    2.6460 N   0  0  2  0  0  3           0  0  0
   -6.3032   -0.5809    0.7509 C   0  0  0  0  0  4           0  0  0
   -8.4901   -1.3570    1.5128 C   0  0  0  0  0  4           0  0  0
  -14.0132    2.1688    0.1861 C   0  0  0  0  0  4           0  0  0
    0.0000    0.0000    0.0000 C   0  0  0  0  0  4           0  0  0
   -0.7842   -0.0000    1.1485 C   0  0  0  0  0  4           0  0  0
   -3.8723   -0.1927   -2.6948 C   0  0  0  0  0  4           0  0  0
   -4.2160   -0.0351   -0.4296 C   0  0  0  0  0  4           0  0  0
   -2.0092   -0.0989   -1.3832 C   0  0  0  0  0  4           0  0  0
   -8.1294   -1.7265    0.2349 C   0  0  0  0  0  4           0  0  0
  -12.5485    0.3244    0.7133 C   0  0  0  0  0  4           0  0  0
   -2.8125   -0.0368   -0.2252 C   0  0  0  0  0  4           0  0  0
  -12.9113    1.6657    0.8742 C   0  0  0  0  0  4           0  0  0
  -14.7615    1.3604   -0.6631 C   0  0  0  0  0  4           0  0  0
   -0.6223   -0.0813   -1.2484 C   0  0  0  0  0  4           0  0  0
   -2.1764    0.0066    1.0400 C   0  0  0  0  0  4           0  0  0
  -13.2968   -0.4949   -0.1430 C   0  0  0  0  0  4           0  0  0
  -14.3996    0.0254   -0.8273 C   0  0  0  0  0  4           0  0  0
  -10.9476   -1.4478    1.3815 C   0  0  0  0  0  4           0  0  0
    4.5811    2.4428    6.8717 C   0  0  0  0  0  4           0  0  0
    1.9797    1.1167    0.6447 C   0  0  0  0  0  4           0  0  0
    0.0385   -1.2629    2.9630 C   0  0  0  0  0  4           0  0  0
    4.4821    3.5349    4.7071 C   0  0  0  0  0  4           0  0  0
    3.9829    1.1846    4.8848 C   0  0  0  0  0  4           0  0  0
    4.7677    3.3609    3.2115 C   0  0  0  0  0  4           0  0  0
    4.2649    1.0092    3.3878 C   0  0  0  0  0  4           0  0  0
    4.2721    2.1045    1.2150 C   0  0  0  0  0  4           0  0  0
   -9.7372   -1.6547    2.2634 C   0  0  0  0  0  4           0  0  0
    3.4930    0.9636    0.5563 C   0  0  0  0  0  4           0  0  0
  1 14  1  0     0  0
  1 15  1  0     0  0
  2 16  1  0     0  0
  3 17  1  0     0  0
  3 33  1  0     0  0
  4 18  1  0     0  0
  4 34  1  0     0  0
  5 31  2  0     0  0
  6 32  1  0     0  0
  7 14  2  0     0  0
  7 22  1  0     0  0
  8 19  1  0     0  0
  8 20  2  0     0  0
  9 19  2  0     0  0
  9 21  1  0     0  0
 10 14  1  0     0  0
 10 20  1  0     0  0
 11 23  1  0     0  0
 11 31  1  0     0  0
 12 32  1  0     0  0
 12 35  1  0     0  0
 12 36  1  0     0  0
 13 37  1  0     0  0
 13 38  1  0     0  0
 13 39  1  0     0  0
 15 22  2  0     0  0
 15 40  1  0     0  0
 16 25  2  0     0  0
 16 26  1  0     0  0
 17 18  2  0     0  0
 17 27  1  0     0  0
 18 28  1  0     0  0
 20 24  1  0     0  0
 21 24  1  0     0  0
 21 27  2  0     0  0
 23 25  1  0     0  0
 23 29  2  0     0  0
 24 28  2  0     0  0
 26 30  2  0     0  0
 29 30  1  0     0  0
 31 40  1  0     0  0
 33 41  1  0     0  0
 35 37  1  0     0  0
 36 38  1  0     0  0
 39 41  1  0     0  0
M  END
> <standard_type>
pIC50

> <# Confs.>
25

> <canonical_smiles>
FC1=CC(NC(CC2=CN=C(NC(C3=C4)=NC=NC3=CC(OCCCN5CCN(CO)CC5)=C4OC)S2)=O)=CC=C1

> <standard_relation>
=

> <Publication_ID>
nan

> <predicted_activity_value>
8.080921907623926

> <actual_activity_value>
8.154901959985743

> <Compound>
2

> <standard_units>
nM

> hash
10397007601345888930

$$$$
1
XXILIB    08252103493D 0   0.00000     0.00000

 41 45  0     1  0            999 V2000
   -7.2332   -0.4203    2.2023 S   0  0  0  0  0  2           0  0  0
  -14.3587    3.4541    0.3448 F   0  0  0  0  0  1           0  0  0
    1.3665    0.0000   -0.0000 O   0  0  0  0  0  2           0  0  0
   -0.2265    0.0177    2.3956 O   0  0  0  0  0  2           0  0  0
  -11.4107   -2.3597    0.6972 O   0  0  0  0  0  2           0  0  0
    7.7248    1.8449   -6.2022 O   0  0  0  0  0  2           0  0  0
   -6.8922   -1.2910   -0.1929 N   0  0  0  0  0  3           0  0  0
   -4.7413   -0.1329   -1.6762 N   0  0  0  0  0  3           0  0  0
   -2.5341   -0.1745   -2.6127 N   0  0  0  0  0  3           0  0  0
   -5.0858    0.0071    0.6803 N   0  0  0  0  0  3           0  0  0
  -11.4350   -0.1535    1.4289 N   0  0  0  0  0  3           0  0  0
    6.5763    1.4484   -4.0947 N   0  0  2  0  0  3           0  0  0
    4.5054    1.9920   -2.1483 N   0  0  2  0  0  3           0  0  0
   -6.3032   -0.5809    0.7509 C   0  0  0  0  0  4           0  0  0
   -8.4901   -1.3570    1.5128 C   0  0  0  0  0  4           0  0  0
  -14.0132    2.1688    0.1861 C   0  0  0  0  0  4           0  0  0
    0.0000    0.0000    0.0000 C   0  0  0  0  0  4           0  0  0
   -0.7842   -0.0000    1.1485 C   0  0  0  0  0  4           0  0  0
   -3.8723   -0.1927   -2.6948 C   0  0  0  0  0  4           0  0  0
   -4.2160   -0.0351   -0.4296 C   0  0  0  0  0  4           0  0  0
   -2.0092   -0.0989   -1.3832 C   0  0  0  0  0  4           0  0  0
   -8.1294   -1.7265    0.2349 C   0  0  0  0  0  4           0  0  0
  -12.5485    0.3244    0.7133 C   0  0  0  0  0  4           0  0  0
   -2.8125   -0.0368   -0.2252 C   0  0  0  0  0  4           0  0  0
  -12.9113    1.6657    0.8742 C   0  0  0  0  0  4           0  0  0
  -14.7615    1.3604   -0.6631 C   0  0  0  0  0  4           0  0  0
   -0.6223   -0.0813   -1.2484 C   0  0  0  0  0  4           0  0  0
   -2.1764    0.0066    1.0400 C   0  0  0  0  0  4           0  0  0
  -13.2968   -0.4949   -0.1430 C   0  0  0  0  0  4           0  0  0
  -14.3996    0.0254   -0.8273 C   0  0  0  0  0  4           0  0  0
  -10.9476   -1.4478    1.3815 C   0  0  0  0  0  4           0  0  0
    7.8420    1.6546   -4.7940 C   0  0  0  0  0  4           0  0  0
    1.9797    1.1167    0.6447 C   0  0  0  0  0  4           0  0  0
    0.0385   -1.2629    2.9630 C   0  0  0  0  0  4           0  0  0
    5.6677    2.5873   -4.2554 C   0  0  0  0  0  4           0  0  0
    6.7757    1.1461   -2.6743 C   0  0  0  0  0  4           0  0  0
    4.3246    2.3005   -3.5753 C   0  0  0  0  0  4           0  0  0
    5.4333    0.8606   -1.9904 C   0  0  0  0  0  4           0  0  0
    3.2088    1.7258   -1.5173 C   0  0  0  0  0  4           0  0  0
   -9.7372   -1.6547    2.2634 C   0  0  0  0  0  4           0  0  0
    3.3185    1.3961   -0.0268 C   0  0  0  0  0  4           0  0  0
  1 14  1  0     0  0
  1 15  1  0     0  0
  2 16  1  0     0  0
  3 17  1  0     0  0
  3 33  1  0     0  0
  4 18  1  0     0  0
  4 34  1  0     0  0
  5 31  2  0     0  0
  6 32  1  0     0  0
  7 14  2  0     0  0
  7 22  1  0     0  0
  8 19  1  0     0  0
  8 20  2  0     0  0
  9 19  2  0     0  0
  9 21  1  0     0  0
 10 14  1  0     0  0
 10 20  1  0     0  0
 11 23  1  0     0  0
 11 31  1  0     0  0
 12 32  1  0     0  0
 12 35  1  0     0  0
 12 36  1  0     0  0
 13 37  1  0     0  0
 13 38  1  0     0  0
 13 39  1  0     0  0
 15 22  2  0     0  0
 15 40  1  0     0  0
 16 25  2  0     0  0
 16 26  1  0     0  0
 17 18  2  0     0  0
 17 27  1  0     0  0
 18 28  1  0     0  0
 20 24  1  0     0  0
 21 24  1  0     0  0
 21 27  2  0     0  0
 23 25  1  0     0  0
 23 29  2  0     0  0
 24 28  2  0     0  0
 26 30  2  0     0  0
 29 30  1  0     0  0
 31 40  1  0     0  0
 33 41  1  0     0  0
 35 37  1  0     0  0
 36 38  1  0     0  0
 39 41  1  0     0  0
M  END
> <standard_type>
pIC50

> <# Confs.>
25

> <canonical_smiles>
FC1=CC(NC(CC2=CN=C(NC(C3=C4)=NC=NC3=CC(OCCCN5CCN(CO)CC5)=C4OC)S2)=O)=CC=C1

> <standard_relation>
=

> <Publication_ID>
nan

> <predicted_activity_value>
8.080921907623926

> <actual_activity_value>
8.154901959985743

> <Compound>
2

> <standard_units>
nM

> hash
10397007601345888930

$$$$
1
XXILIB    08252103493D 0   0.00000     0.00000

 41 45  0     1  0            999 V2000
   -7.2332   -0.4203    2.2023 S   0  0  0  0  0  2           0  0  0
  -11.9157    4.6369    4.8730 F   0  0  0  0  0  1           0  0  0
    1.3665   -0.0000   -0.0000 O   0  0  0  0  0  2           0  0  0
   -0.2265    0.0177    2.3956 O   0  0  0  0  0  2           0  0  0
  -11.5799   -0.6700    1.0863 O   0  0  0  0  0  2           0  0  0
    1.2660    7.1436   -4.5553 O   0  0  0  0  0  2           0  0  0
   -6.8922   -1.2910   -0.1929 N   0  0  0  0  0  3           0  0  0
   -4.7413   -0.1329   -1.6762 N   0  0  0  0  0  3           0  0  0
   -2.5341   -0.1745   -2.6127 N   0  0  0  0  0  3           0  0  0
   -5.0858    0.0071    0.6803 N   0  0  0  0  0  3           0  0  0
  -10.6925    0.4674    2.9089 N   0  0  0  0  0  3           0  0  0
    2.0025    5.5783   -2.8449 N   0  0  2  0  0  3           0  0  0
    2.3915    2.9124   -1.7892 N   0  0  2  0  0  3           0  0  0
   -6.3032   -0.5809    0.7509 C   0  0  0  0  0  4           0  0  0
   -8.4901   -1.3570    1.5128 C   0  0  0  0  0  4           0  0  0
  -12.1253    3.7054    3.9323 C   0  0  0  0  0  4           0  0  0
    0.0000    0.0000    0.0000 C   0  0  0  0  0  4           0  0  0
   -0.7842   -0.0000    1.1485 C   0  0  0  0  0  4           0  0  0
   -3.8723   -0.1927   -2.6948 C   0  0  0  0  0  4           0  0  0
   -4.2160   -0.0351   -0.4296 C   0  0  0  0  0  4           0  0  0
   -2.0092   -0.0989   -1.3832 C   0  0  0  0  0  4           0  0  0
   -8.1294   -1.7265    0.2349 C   0  0  0  0  0  4           0  0  0
  -11.5279    1.5999    2.9149 C   0  0  0  0  0  4           0  0  0
   -2.8125   -0.0368   -0.2252 C   0  0  0  0  0  4           0  0  0
  -11.3112    2.5755    3.8936 C   0  0  0  0  0  4           0  0  0
  -13.1524    3.8839    3.0114 C   0  0  0  0  0  4           0  0  0
   -0.6223   -0.0813   -1.2484 C   0  0  0  0  0  4           0  0  0
   -2.1764    0.0066    1.0400 C   0  0  0  0  0  4           0  0  0
  -12.5594    1.7751    1.9823 C   0  0  0  0  0  4           0  0  0
  -13.3673    2.9152    2.0340 C   0  0  0  0  0  4           0  0  0
  -10.7742   -0.5836    2.0124 C   0  0  0  0  0  4           0  0  0
    1.2579    6.7912   -3.1737 C   0  0  0  0  0  4           0  0  0
    1.9797    1.1167    0.6447 C   0  0  0  0  0  4           0  0  0
    0.0385   -1.2629    2.9630 C   0  0  0  0  0  4           0  0  0
    1.4760    4.4033   -3.5455 C   0  0  0  0  0  4           0  0  0
    2.0500    5.3369   -1.3999 C   0  0  0  0  0  4           0  0  0
    2.3301    3.1688   -3.2365 C   0  0  0  0  0  4           0  0  0
    2.9022    4.1011   -1.0876 C   0  0  0  0  0  4           0  0  0
    3.2088    1.7258   -1.5173 C   0  0  0  0  0  4           0  0  0
   -9.7372   -1.6547    2.2634 C   0  0  0  0  0  4           0  0  0
    3.3185    1.3961   -0.0268 C   0  0  0  0  0  4           0  0  0
  1 14  1  0     0  0
  1 15  1  0     0  0
  2 16  1  0     0  0
  3 17  1  0     0  0
  3 33  1  0     0  0
  4 18  1  0     0  0
  4 34  1  0     0  0
  5 31  2  0     0  0
  6 32  1  0     0  0
  7 14  2  0     0  0
  7 22  1  0     0  0
  8 19  1  0     0  0
  8 20  2  0     0  0
  9 19  2  0     0  0
  9 21  1  0     0  0
 10 14  1  0     0  0
 10 20  1  0     0  0
 11 23  1  0     0  0
 11 31  1  0     0  0
 12 32  1  0     0  0
 12 35  1  0     0  0
 12 36  1  0     0  0
 13 37  1  0     0  0
 13 38  1  0     0  0
 13 39  1  0     0  0
 15 22  2  0     0  0
 15 40  1  0     0  0
 16 25  2  0     0  0
 16 26  1  0     0  0
 17 18  2  0     0  0
 17 27  1  0     0  0
 18 28  1  0     0  0
 20 24  1  0     0  0
 21 24  1  0     0  0
 21 27  2  0     0  0
 23 25  1  0     0  0
 23 29  2  0     0  0
 24 28  2  0     0  0
 26 30  2  0     0  0
 29 30  1  0     0  0
 31 40  1  0     0  0
 33 41  1  0     0  0
 35 37  1  0     0  0
 36 38  1  0     0  0
 39 41  1  0     0  0
M  END
> <standard_type>
pIC50

> <# Confs.>
25

> <canonical_smiles>
FC1=CC(NC(CC2=CN=C(NC(C3=C4)=NC=NC3=CC(OCCCN5CCN(CO)CC5)=C4OC)S2)=O)=CC=C1

> <standard_relation>
=

> <Publication_ID>
nan

> <predicted_activity_value>
8.080921907623926

> <actual_activity_value>
8.154901959985743

> <Compound>
2

> <standard_units>
nM

> hash
10397007601345888930

$$$$
1
XXILIB    08252103493D 0   0.00000     0.00000

 41 45  0     1  0            999 V2000
   -7.2332   -0.4203    2.2023 S   0  0  0  0  0  2           0  0  0
  -14.3587    3.4541    0.3448 F   0  0  0  0  0  1           0  0  0
    1.3665   -0.0000    0.0000 O   0  0  0  0  0  2           0  0  0
   -0.2265    0.0177    2.3956 O   0  0  0  0  0  2           0  0  0
  -11.4107   -2.3597    0.6972 O   0  0  0  0  0  2           0  0  0
    2.1641    8.2987   -1.8649 O   0  0  0  0  0  2           0  0  0
   -6.8922   -1.2910   -0.1929 N   0  0  0  0  0  3           0  0  0
   -4.7413   -0.1329   -1.6762 N   0  0  0  0  0  3           0  0  0
   -2.5341   -0.1745   -2.6127 N   0  0  0  0  0  3           0  0  0
   -5.0858    0.0071    0.6803 N   0  0  0  0  0  3           0  0  0
  -11.4350   -0.1535    1.4289 N   0  0  0  0  0  3           0  0  0
    3.0318    6.5860   -0.3711 N   0  0  2  0  0  3           0  0  0
    3.3440    3.8435    0.4972 N   0  0  2  0  0  3           0  0  0
   -6.3032   -0.5809    0.7509 C   0  0  0  0  0  4           0  0  0
   -8.4901   -1.3570    1.5128 C   0  0  0  0  0  4           0  0  0
  -14.0132    2.1688    0.1861 C   0  0  0  0  0  4           0  0  0
    0.0000    0.0000    0.0000 C   0  0  0  0  0  4           0  0  0
   -0.7842   -0.0000    1.1485 C   0  0  0  0  0  4           0  0  0
   -3.8723   -0.1927   -2.6948 C   0  0  0  0  0  4           0  0  0
   -4.2160   -0.0351   -0.4296 C   0  0  0  0  0  4           0  0  0
   -2.0092   -0.0989   -1.3832 C   0  0  0  0  0  4           0  0  0
   -8.1294   -1.7265    0.2349 C   0  0  0  0  0  4           0  0  0
  -12.5485    0.3244    0.7133 C   0  0  0  0  0  4           0  0  0
   -2.8125   -0.0368   -0.2252 C   0  0  0  0  0  4           0  0  0
  -12.9113    1.6657    0.8742 C   0  0  0  0  0  4           0  0  0
  -14.7615    1.3604   -0.6631 C   0  0  0  0  0  4           0  0  0
   -0.6223   -0.0813   -1.2484 C   0  0  0  0  0  4           0  0  0
   -2.1764    0.0066    1.0400 C   0  0  0  0  0  4           0  0  0
  -13.2968   -0.4949   -0.1430 C   0  0  0  0  0  4           0  0  0
  -14.3996    0.0254   -0.8273 C   0  0  0  0  0  4           0  0  0
  -10.9476   -1.4478    1.3815 C   0  0  0  0  0  4           0  0  0
    2.3590    7.8742   -0.5178 C   0  0  0  0  0  4           0  0  0
    1.9797    1.1167    0.6447 C   0  0  0  0  0  4           0  0  0
    0.0385   -1.2629    2.9630 C   0  0  0  0  0  4           0  0  0
    2.2858    5.4999   -1.0133 C   0  0  0  0  0  4           0  0  0
    3.3025    6.2637    1.0331 C   0  0  0  0  0  4           0  0  0
    3.0607    4.1820   -0.9061 C   0  0  0  0  0  4           0  0  0
    4.0760    4.9444    1.1438 C   0  0  0  0  0  4           0  0  0
    4.0809    2.5783    0.5762 C   0  0  0  0  0  4           0  0  0
   -9.7372   -1.6547    2.2634 C   0  0  0  0  0  4           0  0  0
    3.3185    1.3961   -0.0268 C   0  0  0  0  0  4           0  0  0
  1 14  1  0     0  0
  1 15  1  0     0  0
  2 16  1  0     0  0
  3 17  1  0     0  0
  3 33  1  0     0  0
  4 18  1  0     0  0
  4 34  1  0     0  0
  5 31  2  0     0  0
  6 32  1  0     0  0
  7 14  2  0     0  0
  7 22  1  0     0  0
  8 19  1  0     0  0
  8 20  2  0     0  0
  9 19  2  0     0  0
  9 21  1  0     0  0
 10 14  1  0     0  0
 10 20  1  0     0  0
 11 23  1  0     0  0
 11 31  1  0     0  0
 12 32  1  0     0  0
 12 35  1  0     0  0
 12 36  1  0     0  0
 13 37  1  0     0  0
 13 38  1  0     0  0
 13 39  1  0     0  0
 15 22  2  0     0  0
 15 40  1  0     0  0
 16 25  2  0     0  0
 16 26  1  0     0  0
 17 18  2  0     0  0
 17 27  1  0     0  0
 18 28  1  0     0  0
 20 24  1  0     0  0
 21 24  1  0     0  0
 21 27  2  0     0  0
 23 25  1  0     0  0
 23 29  2  0     0  0
 24 28  2  0     0  0
 26 30  2  0     0  0
 29 30  1  0     0  0
 31 40  1  0     0  0
 33 41  1  0     0  0
 35 37  1  0     0  0
 36 38  1  0     0  0
 39 41  1  0     0  0
M  END
> <standard_type>
pIC50

> <# Confs.>
25

> <canonical_smiles>
FC1=CC(NC(CC2=CN=C(NC(C3=C4)=NC=NC3=CC(OCCCN5CCN(CO)CC5)=C4OC)S2)=O)=CC=C1

> <standard_relation>
=

> <Publication_ID>
nan

> <predicted_activity_value>
8.080921907623926

> <actual_activity_value>
8.154901959985743

> <Compound>
2

> <standard_units>
nM

> hash
10397007601345888930

$$$$
1
XXILIB    08252103493D 0   0.00000     0.00000

 41 45  0     1  0            999 V2000
   -7.2332   -0.4203    2.2023 S   0  0  0  0  0  2           0  0  0
  -11.9157    4.6369    4.8730 F   0  0  0  0  0  1           0  0  0
    1.3665   -0.0000   -0.0000 O   0  0  0  0  0  2           0  0  0
   -0.2265    0.0177    2.3956 O   0  0  0  0  0  2           0  0  0
  -11.5799   -0.6700    1.0863 O   0  0  0  0  0  2           0  0  0
    5.4025    3.4340    7.4849 O   0  0  0  0  0  2           0  0  0
   -6.8922   -1.2910   -0.1929 N   0  0  0  0  0  3           0  0  0
   -4.7413   -0.1329   -1.6762 N   0  0  0  0  0  3           0  0  0
   -2.5341   -0.1745   -2.6127 N   0  0  0  0  0  3           0  0  0
   -5.0858    0.0071    0.6803 N   0  0  0  0  0  3           0  0  0
  -10.6925    0.4674    2.9089 N   0  0  0  0  0  3           0  0  0
    4.7708    2.2935    5.4311 N   0  0  2  0  0  3           0  0  0
    3.9871    2.2497    2.6460 N   0  0  2  0  0  3           0  0  0
   -6.3032   -0.5809    0.7509 C   0  0  0  0  0  4           0  0  0
   -8.4901   -1.3570    1.5128 C   0  0  0  0  0  4           0  0  0
  -12.1253    3.7054    3.9323 C   0  0  0  0  0  4           0  0  0
    0.0000    0.0000    0.0000 C   0  0  0  0  0  4           0  0  0
   -0.7842   -0.0000    1.1485 C   0  0  0  0  0  4           0  0  0
   -3.8723   -0.1927   -2.6948 C   0  0  0  0  0  4           0  0  0
   -4.2160   -0.0351   -0.4296 C   0  0  0  0  0  4           0  0  0
   -2.0092   -0.0989   -1.3832 C   0  0  0  0  0  4           0  0  0
   -8.1294   -1.7265    0.2349 C   0  0  0  0  0  4           0  0  0
  -11.5279    1.5999    2.9149 C   0  0  0  0  0  4           0  0  0
   -2.8125   -0.0368   -0.2252 C   0  0  0  0  0  4           0  0  0
  -11.3112    2.5755    3.8936 C   0  0  0  0  0  4           0  0  0
  -13.1524    3.8839    3.0114 C   0  0  0  0  0  4           0  0  0
   -0.6223   -0.0813   -1.2484 C   0  0  0  0  0  4           0  0  0
   -2.1764    0.0066    1.0400 C   0  0  0  0  0  4           0  0  0
  -12.5594    1.7751    1.9823 C   0  0  0  0  0  4           0  0  0
  -13.3673    2.9152    2.0340 C   0  0  0  0  0  4           0  0  0
  -10.7742   -0.5836    2.0124 C   0  0  0  0  0  4           0  0  0
    4.5811    2.4428    6.8717 C   0  0  0  0  0  4           0  0  0
    1.9797    1.1167    0.6447 C   0  0  0  0  0  4           0  0  0
    0.0385   -1.2629    2.9630 C   0  0  0  0  0  4           0  0  0
    4.4821    3.5349    4.7071 C   0  0  0  0  0  4           0  0  0
    3.9829    1.1846    4.8848 C   0  0  0  0  0  4           0  0  0
    4.7677    3.3609    3.2115 C   0  0  0  0  0  4           0  0  0
    4.2649    1.0092    3.3878 C   0  0  0  0  0  4           0  0  0
    4.2721    2.1045    1.2150 C   0  0  0  0  0  4           0  0  0
   -9.7372   -1.6547    2.2634 C   0  0  0  0  0  4           0  0  0
    3.4930    0.9636    0.5563 C   0  0  0  0  0  4           0  0  0
  1 14  1  0     0  0
  1 15  1  0     0  0
  2 16  1  0     0  0
  3 17  1  0     0  0
  3 33  1  0     0  0
  4 18  1  0     0  0
  4 34  1  0     0  0
  5 31  2  0     0  0
  6 32  1  0     0  0
  7 14  2  0     0  0
  7 22  1  0     0  0
  8 19  1  0     0  0
  8 20  2  0     0  0
  9 19  2  0     0  0
  9 21  1  0     0  0
 10 14  1  0     0  0
 10 20  1  0     0  0
 11 23  1  0     0  0
 11 31  1  0     0  0
 12 32  1  0     0  0
 12 35  1  0     0  0
 12 36  1  0     0  0
 13 37  1  0     0  0
 13 38  1  0     0  0
 13 39  1  0     0  0
 15 22  2  0     0  0
 15 40  1  0     0  0
 16 25  2  0     0  0
 16 26  1  0     0  0
 17 18  2  0     0  0
 17 27  1  0     0  0
 18 28  1  0     0  0
 20 24  1  0     0  0
 21 24  1  0     0  0
 21 27  2  0     0  0
 23 25  1  0     0  0
 23 29  2  0     0  0
 24 28  2  0     0  0
 26 30  2  0     0  0
 29 30  1  0     0  0
 31 40  1  0     0  0
 33 41  1  0     0  0
 35 37  1  0     0  0
 36 38  1  0     0  0
 39 41  1  0     0  0
M  END
> <standard_type>
pIC50

> <# Confs.>
25

> <canonical_smiles>
FC1=CC(NC(CC2=CN=C(NC(C3=C4)=NC=NC3=CC(OCCCN5CCN(CO)CC5)=C4OC)S2)=O)=CC=C1

> <standard_relation>
=

> <Publication_ID>
nan

> <predicted_activity_value>
8.080921907623926

> <actual_activity_value>
8.154901959985743

> <Compound>
2

> <standard_units>
nM

> hash
10397007601345888930

$$$$
1
XXILIB    08252103493D 0   0.00000     0.00000

 41 45  0     1  0            999 V2000
   -7.2332   -0.4203    2.2023 S   0  0  0  0  0  2           0  0  0
  -11.9157    4.6369    4.8730 F   0  0  0  0  0  1           0  0  0
    1.3665    0.0000   -0.0000 O   0  0  0  0  0  2           0  0  0
   -0.2265    0.0177    2.3956 O   0  0  0  0  0  2           0  0  0
  -11.5799   -0.6700    1.0863 O   0  0  0  0  0  2           0  0  0
    7.7248    1.8449   -6.2022 O   0  0  0  0  0  2           0  0  0
   -6.8922   -1.2910   -0.1929 N   0  0  0  0  0  3           0  0  0
   -4.7413   -0.1329   -1.6762 N   0  0  0  0  0  3           0  0  0
   -2.5341   -0.1745   -2.6127 N   0  0  0  0  0  3           0  0  0
   -5.0858    0.0071    0.6803 N   0  0  0  0  0  3           0  0  0
  -10.6925    0.4674    2.9089 N   0  0  0  0  0  3           0  0  0
    6.5763    1.4484   -4.0947 N   0  0  2  0  0  3           0  0  0
    4.5054    1.9920   -2.1483 N   0  0  2  0  0  3           0  0  0
   -6.3032   -0.5809    0.7509 C   0  0  0  0  0  4           0  0  0
   -8.4901   -1.3570    1.5128 C   0  0  0  0  0  4           0  0  0
  -12.1253    3.7054    3.9323 C   0  0  0  0  0  4           0  0  0
    0.0000    0.0000    0.0000 C   0  0  0  0  0  4           0  0  0
   -0.7842   -0.0000    1.1485 C   0  0  0  0  0  4           0  0  0
   -3.8723   -0.1927   -2.6948 C   0  0  0  0  0  4           0  0  0
   -4.2160   -0.0351   -0.4296 C   0  0  0  0  0  4           0  0  0
   -2.0092   -0.0989   -1.3832 C   0  0  0  0  0  4           0  0  0
   -8.1294   -1.7265    0.2349 C   0  0  0  0  0  4           0  0  0
  -11.5279    1.5999    2.9149 C   0  0  0  0  0  4           0  0  0
   -2.8125   -0.0368   -0.2252 C   0  0  0  0  0  4           0  0  0
  -11.3112    2.5755    3.8936 C   0  0  0  0  0  4           0  0  0
  -13.1524    3.8839    3.0114 C   0  0  0  0  0  4           0  0  0
   -0.6223   -0.0813   -1.2484 C   0  0  0  0  0  4           0  0  0
   -2.1764    0.0066    1.0400 C   0  0  0  0  0  4           0  0  0
  -12.5594    1.7751    1.9823 C   0  0  0  0  0  4           0  0  0
  -13.3673    2.9152    2.0340 C   0  0  0  0  0  4           0  0  0
  -10.7742   -0.5836    2.0124 C   0  0  0  0  0  4           0  0  0
    7.8420    1.6546   -4.7940 C   0  0  0  0  0  4           0  0  0
    1.9797    1.1167    0.6447 C   0  0  0  0  0  4           0  0  0
    0.0385   -1.2629    2.9630 C   0  0  0  0  0  4           0  0  0
    5.6677    2.5873   -4.2554 C   0  0  0  0  0  4           0  0  0
    6.7757    1.1461   -2.6743 C   0  0  0  0  0  4           0  0  0
    4.3246    2.3005   -3.5753 C   0  0  0  0  0  4           0  0  0
    5.4333    0.8606   -1.9904 C   0  0  0  0  0  4           0  0  0
    3.2088    1.7258   -1.5173 C   0  0  0  0  0  4           0  0  0
   -9.7372   -1.6547    2.2634 C   0  0  0  0  0  4           0  0  0
    3.3185    1.3961   -0.0268 C   0  0  0  0  0  4           0  0  0
  1 14  1  0     0  0
  1 15  1  0     0  0
  2 16  1  0     0  0
  3 17  1  0     0  0
  3 33  1  0     0  0
  4 18  1  0     0  0
  4 34  1  0     0  0
  5 31  2  0     0  0
  6 32  1  0     0  0
  7 14  2  0     0  0
  7 22  1  0     0  0
  8 19  1  0     0  0
  8 20  2  0     0  0
  9 19  2  0     0  0
  9 21  1  0     0  0
 10 14  1  0     0  0
 10 20  1  0     0  0
 11 23  1  0     0  0
 11 31  1  0     0  0
 12 32  1  0     0  0
 12 35  1  0     0  0
 12 36  1  0     0  0
 13 37  1  0     0  0
 13 38  1  0     0  0
 13 39  1  0     0  0
 15 22  2  0     0  0
 15 40  1  0     0  0
 16 25  2  0     0  0
 16 26  1  0     0  0
 17 18  2  0     0  0
 17 27  1  0     0  0
 18 28  1  0     0  0
 20 24  1  0     0  0
 21 24  1  0     0  0
 21 27  2  0     0  0
 23 25  1  0     0  0
 23 29  2  0     0  0
 24 28  2  0     0  0
 26 30  2  0     0  0
 29 30  1  0     0  0
 31 40  1  0     0  0
 33 41  1  0     0  0
 35 37  1  0     0  0
 36 38  1  0     0  0
 39 41  1  0     0  0
M  END
> <standard_type>
pIC50

> <# Confs.>
25

> <canonical_smiles>
FC1=CC(NC(CC2=CN=C(NC(C3=C4)=NC=NC3=CC(OCCCN5CCN(CO)CC5)=C4OC)S2)=O)=CC=C1

> <standard_relation>
=

> <Publication_ID>
nan

> <predicted_activity_value>
8.080921907623926

> <actual_activity_value>
8.154901959985743

> <Compound>
2

> <standard_units>
nM

> hash
10397007601345888930

$$$$
1
XXILIB    08252103493D 0   0.00000     0.00000

 41 45  0     1  0            999 V2000
   -7.2332   -0.4203    2.2023 S   0  0  0  0  0  2           0  0  0
   -7.6621   -3.9741    8.7019 F   0  0  0  0  0  1           0  0  0
    1.3665   -0.0000   -0.0000 O   0  0  0  0  0  2           0  0  0
   -0.2265    0.0177    2.3956 O   0  0  0  0  0  2           0  0  0
   -9.8880   -4.0289    2.5653 O   0  0  0  0  0  2           0  0  0
    1.2660    7.1436   -4.5553 O   0  0  0  0  0  2           0  0  0
   -6.8922   -1.2910   -0.1929 N   0  0  0  0  0  3           0  0  0
   -4.7413   -0.1329   -1.6762 N   0  0  0  0  0  3           0  0  0
   -2.5341   -0.1745   -2.6127 N   0  0  0  0  0  3           0  0  0
   -5.0858    0.0071    0.6803 N   0  0  0  0  0  3           0  0  0
   -9.1087   -2.7332    4.3308 N   0  0  0  0  0  3           0  0  0
    2.0025    5.5783   -2.8449 N   0  0  2  0  0  3           0  0  0
    2.3915    2.9124   -1.7892 N   0  0  2  0  0  3           0  0  0
   -6.3032   -0.5809    0.7509 C   0  0  0  0  0  4           0  0  0
   -8.4901   -1.3570    1.5128 C   0  0  0  0  0  4           0  0  0
   -8.1318   -4.3397    7.5010 C   0  0  0  0  0  4           0  0  0
    0.0000    0.0000    0.0000 C   0  0  0  0  0  4           0  0  0
   -0.7842   -0.0000    1.1485 C   0  0  0  0  0  4           0  0  0
   -3.8723   -0.1927   -2.6948 C   0  0  0  0  0  4           0  0  0
   -4.2160   -0.0351   -0.4296 C   0  0  0  0  0  4           0  0  0
   -2.0092   -0.0989   -1.3832 C   0  0  0  0  0  4           0  0  0
   -8.1294   -1.7265    0.2349 C   0  0  0  0  0  4           0  0  0
   -8.8721   -3.7422    5.2828 C   0  0  0  0  0  4           0  0  0
   -2.8125   -0.0368   -0.2252 C   0  0  0  0  0  4           0  0  0
   -8.3840   -3.3649    6.5382 C   0  0  0  0  0  4           0  0  0
   -8.3589   -5.6865    7.2377 C   0  0  0  0  0  4           0  0  0
   -0.6223   -0.0813   -1.2484 C   0  0  0  0  0  4           0  0  0
   -2.1764    0.0066    1.0400 C   0  0  0  0  0  4           0  0  0
   -9.1056   -5.0974    5.0121 C   0  0  0  0  0  4           0  0  0
   -8.8482   -6.0638    5.9894 C   0  0  0  0  0  4           0  0  0
   -9.5884   -2.9377    3.0490 C   0  0  0  0  0  4           0  0  0
    1.2579    6.7912   -3.1737 C   0  0  0  0  0  4           0  0  0
    1.9797    1.1167    0.6447 C   0  0  0  0  0  4           0  0  0
    0.0385   -1.2629    2.9630 C   0  0  0  0  0  4           0  0  0
    1.4760    4.4033   -3.5455 C   0  0  0  0  0  4           0  0  0
    2.0500    5.3369   -1.3999 C   0  0  0  0  0  4           0  0  0
    2.3301    3.1688   -3.2365 C   0  0  0  0  0  4           0  0  0
    2.9022    4.1011   -1.0876 C   0  0  0  0  0  4           0  0  0
    3.2088    1.7258   -1.5173 C   0  0  0  0  0  4           0  0  0
   -9.7372   -1.6547    2.2634 C   0  0  0  0  0  4           0  0  0
    3.3185    1.3961   -0.0268 C   0  0  0  0  0  4           0  0  0
  1 14  1  0     0  0
  1 15  1  0     0  0
  2 16  1  0     0  0
  3 17  1  0     0  0
  3 33  1  0     0  0
  4 18  1  0     0  0
  4 34  1  0     0  0
  5 31  2  0     0  0
  6 32  1  0     0  0
  7 14  2  0     0  0
  7 22  1  0     0  0
  8 19  1  0     0  0
  8 20  2  0     0  0
  9 19  2  0     0  0
  9 21  1  0     0  0
 10 14  1  0     0  0
 10 20  1  0     0  0
 11 23  1  0     0  0
 11 31  1  0     0  0
 12 32  1  0     0  0
 12 35  1  0     0  0
 12 36  1  0     0  0
 13 37  1  0     0  0
 13 38  1  0     0  0
 13 39  1  0     0  0
 15 22  2  0     0  0
 15 40  1  0     0  0
 16 25  2  0     0  0
 16 26  1  0     0  0
 17 18  2  0     0  0
 17 27  1  0     0  0
 18 28  1  0     0  0
 20 24  1  0     0  0
 21 24  1  0     0  0
 21 27  2  0     0  0
 23 25  1  0     0  0
 23 29  2  0     0  0
 24 28  2  0     0  0
 26 30  2  0     0  0
 29 30  1  0     0  0
 31 40  1  0     0  0
 33 41  1  0     0  0
 35 37  1  0     0  0
 36 38  1  0     0  0
 39 41  1  0     0  0
M  END
> <standard_type>
pIC50

> <# Confs.>
25

> <canonical_smiles>
FC1=CC(NC(CC2=CN=C(NC(C3=C4)=NC=NC3=CC(OCCCN5CCN(CO)CC5)=C4OC)S2)=O)=CC=C1

> <standard_relation>
=

> <Publication_ID>
nan

> <predicted_activity_value>
8.080921907623926

> <actual_activity_value>
8.154901959985743

> <Compound>
2

> <standard_units>
nM

> hash
10397007601345888930

$$$$
1
XXILIB    08252103493D 0   0.00000     0.00000

 41 45  0     1  0            999 V2000
   -7.2332   -0.4203    2.2023 S   0  0  0  0  0  2           0  0  0
   -7.6621   -3.9741    8.7019 F   0  0  0  0  0  1           0  0  0
    1.3665   -0.0000   -0.0000 O   0  0  0  0  0  2           0  0  0
   -0.2265    0.0177    2.3956 O   0  0  0  0  0  2           0  0  0
   -9.8880   -4.0289    2.5653 O   0  0  0  0  0  2           0  0  0
    5.4025    3.4340    7.4849 O   0  0  0  0  0  2           0  0  0
   -6.8922   -1.2910   -0.1929 N   0  0  0  0  0  3           0  0  0
   -4.7413   -0.1329   -1.6762 N   0  0  0  0  0  3           0  0  0
   -2.5341   -0.1745   -2.6127 N   0  0  0  0  0  3           0  0  0
   -5.0858    0.0071    0.6803 N   0  0  0  0  0  3           0  0  0
   -9.1087   -2.7332    4.3308 N   0  0  0  0  0  3           0  0  0
    4.7708    2.2935    5.4311 N   0  0  2  0  0  3           0  0  0
    3.9871    2.2497    2.6460 N   0  0  2  0  0  3           0  0  0
   -6.3032   -0.5809    0.7509 C   0  0  0  0  0  4           0  0  0
   -8.4901   -1.3570    1.5128 C   0  0  0  0  0  4           0  0  0
   -8.1318   -4.3397    7.5010 C   0  0  0  0  0  4           0  0  0
    0.0000    0.0000    0.0000 C   0  0  0  0  0  4           0  0  0
   -0.7842   -0.0000    1.1485 C   0  0  0  0  0  4           0  0  0
   -3.8723   -0.1927   -2.6948 C   0  0  0  0  0  4           0  0  0
   -4.2160   -0.0351   -0.4296 C   0  0  0  0  0  4           0  0  0
   -2.0092   -0.0989   -1.3832 C   0  0  0  0  0  4           0  0  0
   -8.1294   -1.7265    0.2349 C   0  0  0  0  0  4           0  0  0
   -8.8721   -3.7422    5.2828 C   0  0  0  0  0  4           0  0  0
   -2.8125   -0.0368   -0.2252 C   0  0  0  0  0  4           0  0  0
   -8.3840   -3.3649    6.5382 C   0  0  0  0  0  4           0  0  0
   -8.3589   -5.6865    7.2377 C   0  0  0  0  0  4           0  0  0
   -0.6223   -0.0813   -1.2484 C   0  0  0  0  0  4           0  0  0
   -2.1764    0.0066    1.0400 C   0  0  0  0  0  4           0  0  0
   -9.1056   -5.0974    5.0121 C   0  0  0  0  0  4           0  0  0
   -8.8482   -6.0638    5.9894 C   0  0  0  0  0  4           0  0  0
   -9.5884   -2.9377    3.0490 C   0  0  0  0  0  4           0  0  0
    4.5811    2.4428    6.8717 C   0  0  0  0  0  4           0  0  0
    1.9797    1.1167    0.6447 C   0  0  0  0  0  4           0  0  0
    0.0385   -1.2629    2.9630 C   0  0  0  0  0  4           0  0  0
    4.4821    3.5349    4.7071 C   0  0  0  0  0  4           0  0  0
    3.9829    1.1846    4.8848 C   0  0  0  0  0  4           0  0  0
    4.7677    3.3609    3.2115 C   0  0  0  0  0  4           0  0  0
    4.2649    1.0092    3.3878 C   0  0  0  0  0  4           0  0  0
    4.2721    2.1045    1.2150 C   0  0  0  0  0  4           0  0  0
   -9.7372   -1.6547    2.2634 C   0  0  0  0  0  4           0  0  0
    3.4930    0.9636    0.5563 C   0  0  0  0  0  4           0  0  0
  1 14  1  0     0  0
  1 15  1  0     0  0
  2 16  1  0     0  0
  3 17  1  0     0  0
  3 33  1  0     0  0
  4 18  1  0     0  0
  4 34  1  0     0  0
  5 31  2  0     0  0
  6 32  1  0     0  0
  7 14  2  0     0  0
  7 22  1  0     0  0
  8 19  1  0     0  0
  8 20  2  0     0  0
  9 19  2  0     0  0
  9 21  1  0     0  0
 10 14  1  0     0  0
 10 20  1  0     0  0
 11 23  1  0     0  0
 11 31  1  0     0  0
 12 32  1  0     0  0
 12 35  1  0     0  0
 12 36  1  0     0  0
 13 37  1  0     0  0
 13 38  1  0     0  0
 13 39  1  0     0  0
 15 22  2  0     0  0
 15 40  1  0     0  0
 16 25  2  0     0  0
 16 26  1  0     0  0
 17 18  2  0     0  0
 17 27  1  0     0  0
 18 28  1  0     0  0
 20 24  1  0     0  0
 21 24  1  0     0  0
 21 27  2  0     0  0
 23 25  1  0     0  0
 23 29  2  0     0  0
 24 28  2  0     0  0
 26 30  2  0     0  0
 29 30  1  0     0  0
 31 40  1  0     0  0
 33 41  1  0     0  0
 35 37  1  0     0  0
 36 38  1  0     0  0
 39 41  1  0     0  0
M  END
> <standard_type>
pIC50

> <# Confs.>
25

> <canonical_smiles>
FC1=CC(NC(CC2=CN=C(NC(C3=C4)=NC=NC3=CC(OCCCN5CCN(CO)CC5)=C4OC)S2)=O)=CC=C1

> <standard_relation>
=

> <Publication_ID>
nan

> <predicted_activity_value>
8.080921907623926

> <actual_activity_value>
8.154901959985743

> <Compound>
2

> <standard_units>
nM

> hash
10397007601345888930

$$$$
1
XXILIB    08252103493D 0   0.00000     0.00000

 41 45  0     1  0            999 V2000
   -7.2332   -0.4203    2.2023 S   0  0  0  0  0  2           0  0  0
  -11.9157    4.6369    4.8730 F   0  0  0  0  0  1           0  0  0
    1.3665   -0.0000    0.0000 O   0  0  0  0  0  2           0  0  0
   -0.2265    0.0177    2.3956 O   0  0  0  0  0  2           0  0  0
  -11.5799   -0.6700    1.0863 O   0  0  0  0  0  2           0  0  0
    2.1641    8.2987   -1.8649 O   0  0  0  0  0  2           0  0  0
   -6.8922   -1.2910   -0.1929 N   0  0  0  0  0  3           0  0  0
   -4.7413   -0.1329   -1.6762 N   0  0  0  0  0  3           0  0  0
   -2.5341   -0.1745   -2.6127 N   0  0  0  0  0  3           0  0  0
   -5.0858    0.0071    0.6803 N   0  0  0  0  0  3           0  0  0
  -10.6925    0.4674    2.9089 N   0  0  0  0  0  3           0  0  0
    3.0318    6.5860   -0.3711 N   0  0  2  0  0  3           0  0  0
    3.3440    3.8435    0.4972 N   0  0  2  0  0  3           0  0  0
   -6.3032   -0.5809    0.7509 C   0  0  0  0  0  4           0  0  0
   -8.4901   -1.3570    1.5128 C   0  0  0  0  0  4           0  0  0
  -12.1253    3.7054    3.9323 C   0  0  0  0  0  4           0  0  0
    0.0000    0.0000    0.0000 C   0  0  0  0  0  4           0  0  0
   -0.7842   -0.0000    1.1485 C   0  0  0  0  0  4           0  0  0
   -3.8723   -0.1927   -2.6948 C   0  0  0  0  0  4           0  0  0
   -4.2160   -0.0351   -0.4296 C   0  0  0  0  0  4           0  0  0
   -2.0092   -0.0989   -1.3832 C   0  0  0  0  0  4           0  0  0
   -8.1294   -1.7265    0.2349 C   0  0  0  0  0  4           0  0  0
  -11.5279    1.5999    2.9149 C   0  0  0  0  0  4           0  0  0
   -2.8125   -0.0368   -0.2252 C   0  0  0  0  0  4           0  0  0
  -11.3112    2.5755    3.8936 C   0  0  0  0  0  4           0  0  0
  -13.1524    3.8839    3.0114 C   0  0  0  0  0  4           0  0  0
   -0.6223   -0.0813   -1.2484 C   0  0  0  0  0  4           0  0  0
   -2.1764    0.0066    1.0400 C   0  0  0  0  0  4           0  0  0
  -12.5594    1.7751    1.9823 C   0  0  0  0  0  4           0  0  0
  -13.3673    2.9152    2.0340 C   0  0  0  0  0  4           0  0  0
  -10.7742   -0.5836    2.0124 C   0  0  0  0  0  4           0  0  0
    2.3590    7.8742   -0.5178 C   0  0  0  0  0  4           0  0  0
    1.9797    1.1167    0.6447 C   0  0  0  0  0  4           0  0  0
    0.0385   -1.2629    2.9630 C   0  0  0  0  0  4           0  0  0
    2.2858    5.4999   -1.0133 C   0  0  0  0  0  4           0  0  0
    3.3025    6.2637    1.0331 C   0  0  0  0  0  4           0  0  0
    3.0607    4.1820   -0.9061 C   0  0  0  0  0  4           0  0  0
    4.0760    4.9444    1.1438 C   0  0  0  0  0  4           0  0  0
    4.0809    2.5783    0.5762 C   0  0  0  0  0  4           0  0  0
   -9.7372   -1.6547    2.2634 C   0  0  0  0  0  4           0  0  0
    3.3185    1.3961   -0.0268 C   0  0  0  0  0  4           0  0  0
  1 14  1  0     0  0
  1 15  1  0     0  0
  2 16  1  0     0  0
  3 17  1  0     0  0
  3 33  1  0     0  0
  4 18  1  0     0  0
  4 34  1  0     0  0
  5 31  2  0     0  0
  6 32  1  0     0  0
  7 14  2  0     0  0
  7 22  1  0     0  0
  8 19  1  0     0  0
  8 20  2  0     0  0
  9 19  2  0     0  0
  9 21  1  0     0  0
 10 14  1  0     0  0
 10 20  1  0     0  0
 11 23  1  0     0  0
 11 31  1  0     0  0
 12 32  1  0     0  0
 12 35  1  0     0  0
 12 36  1  0     0  0
 13 37  1  0     0  0
 13 38  1  0     0  0
 13 39  1  0     0  0
 15 22  2  0     0  0
 15 40  1  0     0  0
 16 25  2  0     0  0
 16 26  1  0     0  0
 17 18  2  0     0  0
 17 27  1  0     0  0
 18 28  1  0     0  0
 20 24  1  0     0  0
 21 24  1  0     0  0
 21 27  2  0     0  0
 23 25  1  0     0  0
 23 29  2  0     0  0
 24 28  2  0     0  0
 26 30  2  0     0  0
 29 30  1  0     0  0
 31 40  1  0     0  0
 33 41  1  0     0  0
 35 37  1  0     0  0
 36 38  1  0     0  0
 39 41  1  0     0  0
M  END
> <standard_type>
pIC50

> <# Confs.>
25

> <canonical_smiles>
FC1=CC(NC(CC2=CN=C(NC(C3=C4)=NC=NC3=CC(OCCCN5CCN(CO)CC5)=C4OC)S2)=O)=CC=C1

> <standard_relation>
=

> <Publication_ID>
nan

> <predicted_activity_value>
8.080921907623926

> <actual_activity_value>
8.154901959985743

> <Compound>
2

> <standard_units>
nM

> hash
10397007601345888930

$$$$
1
XXILIB    08252103493D 0   0.00000     0.00000

 41 45  0     1  0            999 V2000
   -7.2332   -0.4203    2.2023 S   0  0  0  0  0  2           0  0  0
  -10.7258   -8.7021    1.5600 F   0  0  0  0  0  1           0  0  0
    1.3665    0.0000    0.0000 O   0  0  0  0  0  2           0  0  0
   -0.2265    0.0177    2.3956 O   0  0  0  0  0  2           0  0  0
   -9.1617   -2.9418    4.2033 O   0  0  0  0  0  2           0  0  0
    7.4621    3.0949    6.1131 O   0  0  0  0  0  2           0  0  0
   -6.8922   -1.2910   -0.1929 N   0  0  0  0  0  3           0  0  0
   -4.7413   -0.1329   -1.6762 N   0  0  0  0  0  3           0  0  0
   -2.5341   -0.1745   -2.6127 N   0  0  0  0  0  3           0  0  0
   -5.0858    0.0071    0.6803 N   0  0  0  0  0  3           0  0  0
   -9.9618   -4.0584    2.3281 N   0  0  0  0  0  3           0  0  0
    6.2491    2.1865    4.2101 N   0  0  2  0  0  3           0  0  0
    4.3975    2.3992    1.9966 N   0  0  2  0  0  3           0  0  0
   -6.3032   -0.5809    0.7509 C   0  0  0  0  0  4           0  0  0
   -8.4901   -1.3570    1.5128 C   0  0  0  0  0  4           0  0  0
  -10.3270   -7.7255    2.3869 C   0  0  0  0  0  4           0  0  0
    0.0000    0.0000    0.0000 C   0  0  0  0  0  4           0  0  0
   -0.7842   -0.0000    1.1485 C   0  0  0  0  0  4           0  0  0
   -3.8723   -0.1927   -2.6948 C   0  0  0  0  0  4           0  0  0
   -4.2160   -0.0351   -0.4296 C   0  0  0  0  0  4           0  0  0
   -2.0092   -0.0989   -1.3832 C   0  0  0  0  0  4           0  0  0
   -8.1294   -1.7265    0.2349 C   0  0  0  0  0  4           0  0  0
   -9.9278   -5.3821    2.8044 C   0  0  0  0  0  4           0  0  0
   -2.8125   -0.0368   -0.2252 C   0  0  0  0  0  4           0  0  0
  -10.3410   -6.4047    1.9441 C   0  0  0  0  0  4           0  0  0
   -9.9062   -8.0488    3.6726 C   0  0  0  0  0  4           0  0  0
   -0.6223   -0.0813   -1.2484 C   0  0  0  0  0  4           0  0  0
   -2.1764    0.0066    1.0400 C   0  0  0  0  0  4           0  0  0
   -9.5001   -5.7014    4.1004 C   0  0  0  0  0  4           0  0  0
   -9.4910   -7.0322    4.5295 C   0  0  0  0  0  4           0  0  0
   -9.5884   -2.9377    3.0490 C   0  0  0  0  0  4           0  0  0
    6.6540    2.0355    5.6054 C   0  0  0  0  0  4           0  0  0
    1.9797    1.1167    0.6447 C   0  0  0  0  0  4           0  0  0
    0.0385   -1.2629    2.9630 C   0  0  0  0  0  4           0  0  0
    5.4656    3.4065    3.9941 C   0  0  0  0  0  4           0  0  0
    5.5200    1.0135    3.7190 C   0  0  0  0  0  4           0  0  0
    5.1278    3.5693    2.5081 C   0  0  0  0  0  4           0  0  0
    5.1786    1.1743    2.2329 C   0  0  0  0  0  4           0  0  0
    4.0809    2.5783    0.5762 C   0  0  0  0  0  4           0  0  0
   -9.7372   -1.6547    2.2634 C   0  0  0  0  0  4           0  0  0
    3.3185    1.3961   -0.0268 C   0  0  0  0  0  4           0  0  0
  1 14  1  0     0  0
  1 15  1  0     0  0
  2 16  1  0     0  0
  3 17  1  0     0  0
  3 33  1  0     0  0
  4 18  1  0     0  0
  4 34  1  0     0  0
  5 31  2  0     0  0
  6 32  1  0     0  0
  7 14  2  0     0  0
  7 22  1  0     0  0
  8 19  1  0     0  0
  8 20  2  0     0  0
  9 19  2  0     0  0
  9 21  1  0     0  0
 10 14  1  0     0  0
 10 20  1  0     0  0
 11 23  1  0     0  0
 11 31  1  0     0  0
 12 32  1  0     0  0
 12 35  1  0     0  0
 12 36  1  0     0  0
 13 37  1  0     0  0
 13 38  1  0     0  0
 13 39  1  0     0  0
 15 22  2  0     0  0
 15 40  1  0     0  0
 16 25  2  0     0  0
 16 26  1  0     0  0
 17 18  2  0     0  0
 17 27  1  0     0  0
 18 28  1  0     0  0
 20 24  1  0     0  0
 21 24  1  0     0  0
 21 27  2  0     0  0
 23 25  1  0     0  0
 23 29  2  0     0  0
 24 28  2  0     0  0
 26 30  2  0     0  0
 29 30  1  0     0  0
 31 40  1  0     0  0
 33 41  1  0     0  0
 35 37  1  0     0  0
 36 38  1  0     0  0
 39 41  1  0     0  0
M  END
> <standard_type>
pIC50

> <# Confs.>
25

> <canonical_smiles>
FC1=CC(NC(CC2=CN=C(NC(C3=C4)=NC=NC3=CC(OCCCN5CCN(CO)CC5)=C4OC)S2)=O)=CC=C1

> <standard_relation>
=

> <Publication_ID>
nan

> <predicted_activity_value>
8.080921907623926

> <actual_activity_value>
8.154901959985743

> <Compound>
2

> <standard_units>
nM

> hash
10397007601345888930

$$$$
1
XXILIB    08252103493D 0   0.00000     0.00000

 41 45  0     1  0            999 V2000
   -7.2332   -0.4203    2.2023 S   0  0  0  0  0  2           0  0  0
   -7.6621   -3.9741    8.7019 F   0  0  0  0  0  1           0  0  0
    1.3665    0.0000   -0.0000 O   0  0  0  0  0  2           0  0  0
   -0.2265    0.0177    2.3956 O   0  0  0  0  0  2           0  0  0
   -9.8880   -4.0289    2.5653 O   0  0  0  0  0  2           0  0  0
    7.7248    1.8449   -6.2022 O   0  0  0  0  0  2           0  0  0
   -6.8922   -1.2910   -0.1929 N   0  0  0  0  0  3           0  0  0
   -4.7413   -0.1329   -1.6762 N   0  0  0  0  0  3           0  0  0
   -2.5341   -0.1745   -2.6127 N   0  0  0  0  0  3           0  0  0
   -5.0858    0.0071    0.6803 N   0  0  0  0  0  3           0  0  0
   -9.1087   -2.7332    4.3308 N   0  0  0  0  0  3           0  0  0
    6.5763    1.4484   -4.0947 N   0  0  2  0  0  3           0  0  0
    4.5054    1.9920   -2.1483 N   0  0  2  0  0  3           0  0  0
   -6.3032   -0.5809    0.7509 C   0  0  0  0  0  4           0  0  0
   -8.4901   -1.3570    1.5128 C   0  0  0  0  0  4           0  0  0
   -8.1318   -4.3397    7.5010 C   0  0  0  0  0  4           0  0  0
    0.0000    0.0000    0.0000 C   0  0  0  0  0  4           0  0  0
   -0.7842   -0.0000    1.1485 C   0  0  0  0  0  4           0  0  0
   -3.8723   -0.1927   -2.6948 C   0  0  0  0  0  4           0  0  0
   -4.2160   -0.0351   -0.4296 C   0  0  0  0  0  4           0  0  0
   -2.0092   -0.0989   -1.3832 C   0  0  0  0  0  4           0  0  0
   -8.1294   -1.7265    0.2349 C   0  0  0  0  0  4           0  0  0
   -8.8721   -3.7422    5.2828 C   0  0  0  0  0  4           0  0  0
   -2.8125   -0.0368   -0.2252 C   0  0  0  0  0  4           0  0  0
   -8.3840   -3.3649    6.5382 C   0  0  0  0  0  4           0  0  0
   -8.3589   -5.6865    7.2377 C   0  0  0  0  0  4           0  0  0
   -0.6223   -0.0813   -1.2484 C   0  0  0  0  0  4           0  0  0
   -2.1764    0.0066    1.0400 C   0  0  0  0  0  4           0  0  0
   -9.1056   -5.0974    5.0121 C   0  0  0  0  0  4           0  0  0
   -8.8482   -6.0638    5.9894 C   0  0  0  0  0  4           0  0  0
   -9.5884   -2.9377    3.0490 C   0  0  0  0  0  4           0  0  0
    7.8420    1.6546   -4.7940 C   0  0  0  0  0  4           0  0  0
    1.9797    1.1167    0.6447 C   0  0  0  0  0  4           0  0  0
    0.0385   -1.2629    2.9630 C   0  0  0  0  0  4           0  0  0
    5.6677    2.5873   -4.2554 C   0  0  0  0  0  4           0  0  0
    6.7757    1.1461   -2.6743 C   0  0  0  0  0  4           0  0  0
    4.3246    2.3005   -3.5753 C   0  0  0  0  0  4           0  0  0
    5.4333    0.8606   -1.9904 C   0  0  0  0  0  4           0  0  0
    3.2088    1.7258   -1.5173 C   0  0  0  0  0  4           0  0  0
   -9.7372   -1.6547    2.2634 C   0  0  0  0  0  4           0  0  0
    3.3185    1.3961   -0.0268 C   0  0  0  0  0  4           0  0  0
  1 14  1  0     0  0
  1 15  1  0     0  0
  2 16  1  0     0  0
  3 17  1  0     0  0
  3 33  1  0     0  0
  4 18  1  0     0  0
  4 34  1  0     0  0
  5 31  2  0     0  0
  6 32  1  0     0  0
  7 14  2  0     0  0
  7 22  1  0     0  0
  8 19  1  0     0  0
  8 20  2  0     0  0
  9 19  2  0     0  0
  9 21  1  0     0  0
 10 14  1  0     0  0
 10 20  1  0     0  0
 11 23  1  0     0  0
 11 31  1  0     0  0
 12 32  1  0     0  0
 12 35  1  0     0  0
 12 36  1  0     0  0
 13 37  1  0     0  0
 13 38  1  0     0  0
 13 39  1  0     0  0
 15 22  2  0     0  0
 15 40  1  0     0  0
 16 25  2  0     0  0
 16 26  1  0     0  0
 17 18  2  0     0  0
 17 27  1  0     0  0
 18 28  1  0     0  0
 20 24  1  0     0  0
 21 24  1  0     0  0
 21 27  2  0     0  0
 23 25  1  0     0  0
 23 29  2  0     0  0
 24 28  2  0     0  0
 26 30  2  0     0  0
 29 30  1  0     0  0
 31 40  1  0     0  0
 33 41  1  0     0  0
 35 37  1  0     0  0
 36 38  1  0     0  0
 39 41  1  0     0  0
M  END
> <standard_type>
pIC50

> <# Confs.>
25

> <canonical_smiles>
FC1=CC(NC(CC2=CN=C(NC(C3=C4)=NC=NC3=CC(OCCCN5CCN(CO)CC5)=C4OC)S2)=O)=CC=C1

> <standard_relation>
=

> <Publication_ID>
nan

> <predicted_activity_value>
8.080921907623926

> <actual_activity_value>
8.154901959985743

> <Compound>
2

> <standard_units>
nM

> hash
10397007601345888930

$$$$
1
XXILIB    08252103493D 0   0.00000     0.00000

 41 45  0     1  0            999 V2000
   -7.2332   -0.4203    2.2023 S   0  0  0  0  0  2           0  0  0
   -7.6621   -3.9741    8.7019 F   0  0  0  0  0  1           0  0  0
    1.3665   -0.0000    0.0000 O   0  0  0  0  0  2           0  0  0
   -0.2265    0.0177    2.3956 O   0  0  0  0  0  2           0  0  0
   -9.8880   -4.0289    2.5653 O   0  0  0  0  0  2           0  0  0
    2.1641    8.2987   -1.8649 O   0  0  0  0  0  2           0  0  0
   -6.8922   -1.2910   -0.1929 N   0  0  0  0  0  3           0  0  0
   -4.7413   -0.1329   -1.6762 N   0  0  0  0  0  3           0  0  0
   -2.5341   -0.1745   -2.6127 N   0  0  0  0  0  3           0  0  0
   -5.0858    0.0071    0.6803 N   0  0  0  0  0  3           0  0  0
   -9.1087   -2.7332    4.3308 N   0  0  0  0  0  3           0  0  0
    3.0318    6.5860   -0.3711 N   0  0  2  0  0  3           0  0  0
    3.3440    3.8435    0.4972 N   0  0  2  0  0  3           0  0  0
   -6.3032   -0.5809    0.7509 C   0  0  0  0  0  4           0  0  0
   -8.4901   -1.3570    1.5128 C   0  0  0  0  0  4           0  0  0
   -8.1318   -4.3397    7.5010 C   0  0  0  0  0  4           0  0  0
    0.0000    0.0000    0.0000 C   0  0  0  0  0  4           0  0  0
   -0.7842   -0.0000    1.1485 C   0  0  0  0  0  4           0  0  0
   -3.8723   -0.1927   -2.6948 C   0  0  0  0  0  4           0  0  0
   -4.2160   -0.0351   -0.4296 C   0  0  0  0  0  4           0  0  0
   -2.0092   -0.0989   -1.3832 C   0  0  0  0  0  4           0  0  0
   -8.1294   -1.7265    0.2349 C   0  0  0  0  0  4           0  0  0
   -8.8721   -3.7422    5.2828 C   0  0  0  0  0  4           0  0  0
   -2.8125   -0.0368   -0.2252 C   0  0  0  0  0  4           0  0  0
   -8.3840   -3.3649    6.5382 C   0  0  0  0  0  4           0  0  0
   -8.3589   -5.6865    7.2377 C   0  0  0  0  0  4           0  0  0
   -0.6223   -0.0813   -1.2484 C   0  0  0  0  0  4           0  0  0
   -2.1764    0.0066    1.0400 C   0  0  0  0  0  4           0  0  0
   -9.1056   -5.0974    5.0121 C   0  0  0  0  0  4           0  0  0
   -8.8482   -6.0638    5.9894 C   0  0  0  0  0  4           0  0  0
   -9.5884   -2.9377    3.0490 C   0  0  0  0  0  4           0  0  0
    2.3590    7.8742   -0.5178 C   0  0  0  0  0  4           0  0  0
    1.9797    1.1167    0.6447 C   0  0  0  0  0  4           0  0  0
    0.0385   -1.2629    2.9630 C   0  0  0  0  0  4           0  0  0
    2.2858    5.4999   -1.0133 C   0  0  0  0  0  4           0  0  0
    3.3025    6.2637    1.0331 C   0  0  0  0  0  4           0  0  0
    3.0607    4.1820   -0.9061 C   0  0  0  0  0  4           0  0  0
    4.0760    4.9444    1.1438 C   0  0  0  0  0  4           0  0  0
    4.0809    2.5783    0.5762 C   0  0  0  0  0  4           0  0  0
   -9.7372   -1.6547    2.2634 C   0  0  0  0  0  4           0  0  0
    3.3185    1.3961   -0.0268 C   0  0  0  0  0  4           0  0  0
  1 14  1  0     0  0
  1 15  1  0     0  0
  2 16  1  0     0  0
  3 17  1  0     0  0
  3 33  1  0     0  0
  4 18  1  0     0  0
  4 34  1  0     0  0
  5 31  2  0     0  0
  6 32  1  0     0  0
  7 14  2  0     0  0
  7 22  1  0     0  0
  8 19  1  0     0  0
  8 20  2  0     0  0
  9 19  2  0     0  0
  9 21  1  0     0  0
 10 14  1  0     0  0
 10 20  1  0     0  0
 11 23  1  0     0  0
 11 31  1  0     0  0
 12 32  1  0     0  0
 12 35  1  0     0  0
 12 36  1  0     0  0
 13 37  1  0     0  0
 13 38  1  0     0  0
 13 39  1  0     0  0
 15 22  2  0     0  0
 15 40  1  0     0  0
 16 25  2  0     0  0
 16 26  1  0     0  0
 17 18  2  0     0  0
 17 27  1  0     0  0
 18 28  1  0     0  0
 20 24  1  0     0  0
 21 24  1  0     0  0
 21 27  2  0     0  0
 23 25  1  0     0  0
 23 29  2  0     0  0
 24 28  2  0     0  0
 26 30  2  0     0  0
 29 30  1  0     0  0
 31 40  1  0     0  0
 33 41  1  0     0  0
 35 37  1  0     0  0
 36 38  1  0     0  0
 39 41  1  0     0  0
M  END
> <standard_type>
pIC50

> <# Confs.>
25

> <canonical_smiles>
FC1=CC(NC(CC2=CN=C(NC(C3=C4)=NC=NC3=CC(OCCCN5CCN(CO)CC5)=C4OC)S2)=O)=CC=C1

> <standard_relation>
=

> <Publication_ID>
nan

> <predicted_activity_value>
8.080921907623926

> <actual_activity_value>
8.154901959985743

> <Compound>
2

> <standard_units>
nM

> hash
10397007601345888930

$$$$
1
XXILIB    08252103493D 0   0.00000     0.00000

 41 45  0     1  0            999 V2000
   -7.2332   -0.4203    2.2023 S   0  0  0  0  0  2           0  0  0
  -11.9157    4.6369    4.8730 F   0  0  0  0  0  1           0  0  0
    1.3665    0.0000   -0.0000 O   0  0  0  0  0  2           0  0  0
   -0.2265    0.0177    2.3956 O   0  0  0  0  0  2           0  0  0
  -11.5799   -0.6700    1.0863 O   0  0  0  0  0  2           0  0  0
    3.1589   -8.9940   -0.0113 O   0  0  0  0  0  2           0  0  0
   -6.8922   -1.2910   -0.1929 N   0  0  0  0  0  3           0  0  0
   -4.7413   -0.1329   -1.6762 N   0  0  0  0  0  3           0  0  0
   -2.5341   -0.1745   -2.6127 N   0  0  0  0  0  3           0  0  0
   -5.0858    0.0071    0.6803 N   0  0  0  0  0  3           0  0  0
  -10.6925    0.4674    2.9089 N   0  0  0  0  0  3           0  0  0
    3.0371   -6.5897   -0.3612 N   0  0  2  0  0  3           0  0  0
    3.3440   -3.8435    0.4972 N   0  0  2  0  0  3           0  0  0
   -6.3032   -0.5809    0.7509 C   0  0  0  0  0  4           0  0  0
   -8.4901   -1.3570    1.5128 C   0  0  0  0  0  4           0  0  0
  -12.1253    3.7054    3.9323 C   0  0  0  0  0  4           0  0  0
    0.0000    0.0000    0.0000 C   0  0  0  0  0  4           0  0  0
   -0.7842   -0.0000    1.1485 C   0  0  0  0  0  4           0  0  0
   -3.8723   -0.1927   -2.6948 C   0  0  0  0  0  4           0  0  0
   -4.2160   -0.0351   -0.4296 C   0  0  0  0  0  4           0  0  0
   -2.0092   -0.0989   -1.3832 C   0  0  0  0  0  4           0  0  0
   -8.1294   -1.7265    0.2349 C   0  0  0  0  0  4           0  0  0
  -11.5279    1.5999    2.9149 C   0  0  0  0  0  4           0  0  0
   -2.8125   -0.0368   -0.2252 C   0  0  0  0  0  4           0  0  0
  -11.3112    2.5755    3.8936 C   0  0  0  0  0  4           0  0  0
  -13.1524    3.8839    3.0114 C   0  0  0  0  0  4           0  0  0
   -0.6223   -0.0813   -1.2484 C   0  0  0  0  0  4           0  0  0
   -2.1764    0.0066    1.0400 C   0  0  0  0  0  4           0  0  0
  -12.5594    1.7751    1.9823 C   0  0  0  0  0  4           0  0  0
  -13.3673    2.9152    2.0340 C   0  0  0  0  0  4           0  0  0
  -10.7742   -0.5836    2.0124 C   0  0  0  0  0  4           0  0  0
    2.3828   -7.8908   -0.4734 C   0  0  0  0  0  4           0  0  0
    1.9797   -1.1167    0.6447 C   0  0  0  0  0  4           0  0  0
    0.0061    1.3142    2.9409 C   0  0  0  0  0  4           0  0  0
    3.3804   -6.2650    1.0264 C   0  0  0  0  0  4           0  0  0
    2.2346   -5.5173   -0.9568 C   0  0  0  0  0  4           0  0  0
    4.1337   -4.9320    1.0933 C   0  0  0  0  0  4           0  0  0
    2.9848   -4.1818   -0.8894 C   0  0  0  0  0  4           0  0  0
    4.0809   -2.5783    0.5762 C   0  0  0  0  0  4           0  0  0
   -9.7372   -1.6547    2.2634 C   0  0  0  0  0  4           0  0  0
    3.3185   -1.3961   -0.0268 C   0  0  0  0  0  4           0  0  0
  1 14  1  0     0  0
  1 15  1  0     0  0
  2 16  1  0     0  0
  3 17  1  0     0  0
  3 33  1  0     0  0
  4 18  1  0     0  0
  4 34  1  0     0  0
  5 31  2  0     0  0
  6 32  1  0     0  0
  7 14  2  0     0  0
  7 22  1  0     0  0
  8 19  1  0     0  0
  8 20  2  0     0  0
  9 19  2  0     0  0
  9 21  1  0     0  0
 10 14  1  0     0  0
 10 20  1  0     0  0
 11 23  1  0     0  0
 11 31  1  0     0  0
 12 32  1  0     0  0
 12 35  1  0     0  0
 12 36  1  0     0  0
 13 37  1  0     0  0
 13 38  1  0     0  0
 13 39  1  0     0  0
 15 22  2  0     0  0
 15 40  1  0     0  0
 16 25  2  0     0  0
 16 26  1  0     0  0
 17 18  2  0     0  0
 17 27  1  0     0  0
 18 28  1  0     0  0
 20 24  1  0     0  0
 21 24  1  0     0  0
 21 27  2  0     0  0
 23 25  1  0     0  0
 23 29  2  0     0  0
 24 28  2  0     0  0
 26 30  2  0     0  0
 29 30  1  0     0  0
 31 40  1  0     0  0
 33 41  1  0     0  0
 35 37  1  0     0  0
 36 38  1  0     0  0
 39 41  1  0     0  0
M  END
> <standard_type>
pIC50

> <# Confs.>
25

> <canonical_smiles>
FC1=CC(NC(CC2=CN=C(NC(C3=C4)=NC=NC3=CC(OCCCN5CCN(CO)CC5)=C4OC)S2)=O)=CC=C1

> <standard_relation>
=

> <Publication_ID>
nan

> <predicted_activity_value>
8.080921907623926

> <actual_activity_value>
8.154901959985743

> <Compound>
2

> <standard_units>
nM

> hash
10397007601345888930

$$$$
1
XXILIB    08252103493D 0   0.00000     0.00000

 41 45  0     1  0            999 V2000
   -7.2332   -0.4203    2.2023 S   0  0  0  0  0  2           0  0  0
  -14.3587    3.4541    0.3448 F   0  0  0  0  0  1           0  0  0
    1.3665    0.0000   -0.0000 O   0  0  0  0  0  2           0  0  0
   -0.2265    0.0177    2.3956 O   0  0  0  0  0  2           0  0  0
  -11.4107   -2.3597    0.6972 O   0  0  0  0  0  2           0  0  0
    3.1589   -8.9940   -0.0113 O   0  0  0  0  0  2           0  0  0
   -6.8922   -1.2910   -0.1929 N   0  0  0  0  0  3           0  0  0
   -4.7413   -0.1329   -1.6762 N   0  0  0  0  0  3           0  0  0
   -2.5341   -0.1745   -2.6127 N   0  0  0  0  0  3           0  0  0
   -5.0858    0.0071    0.6803 N   0  0  0  0  0  3           0  0  0
  -11.4350   -0.1535    1.4289 N   0  0  0  0  0  3           0  0  0
    3.0371   -6.5897   -0.3612 N   0  0  2  0  0  3           0  0  0
    3.3440   -3.8435    0.4972 N   0  0  2  0  0  3           0  0  0
   -6.3032   -0.5809    0.7509 C   0  0  0  0  0  4           0  0  0
   -8.4901   -1.3570    1.5128 C   0  0  0  0  0  4           0  0  0
  -14.0132    2.1688    0.1861 C   0  0  0  0  0  4           0  0  0
    0.0000    0.0000    0.0000 C   0  0  0  0  0  4           0  0  0
   -0.7842   -0.0000    1.1485 C   0  0  0  0  0  4           0  0  0
   -3.8723   -0.1927   -2.6948 C   0  0  0  0  0  4           0  0  0
   -4.2160   -0.0351   -0.4296 C   0  0  0  0  0  4           0  0  0
   -2.0092   -0.0989   -1.3832 C   0  0  0  0  0  4           0  0  0
   -8.1294   -1.7265    0.2349 C   0  0  0  0  0  4           0  0  0
  -12.5485    0.3244    0.7133 C   0  0  0  0  0  4           0  0  0
   -2.8125   -0.0368   -0.2252 C   0  0  0  0  0  4           0  0  0
  -12.9113    1.6657    0.8742 C   0  0  0  0  0  4           0  0  0
  -14.7615    1.3604   -0.6631 C   0  0  0  0  0  4           0  0  0
   -0.6223   -0.0813   -1.2484 C   0  0  0  0  0  4           0  0  0
   -2.1764    0.0066    1.0400 C   0  0  0  0  0  4           0  0  0
  -13.2968   -0.4949   -0.1430 C   0  0  0  0  0  4           0  0  0
  -14.3996    0.0254   -0.8273 C   0  0  0  0  0  4           0  0  0
  -10.9476   -1.4478    1.3815 C   0  0  0  0  0  4           0  0  0
    2.3828   -7.8908   -0.4734 C   0  0  0  0  0  4           0  0  0
    1.9797   -1.1167    0.6447 C   0  0  0  0  0  4           0  0  0
    0.0061    1.3142    2.9409 C   0  0  0  0  0  4           0  0  0
    3.3804   -6.2650    1.0264 C   0  0  0  0  0  4           0  0  0
    2.2346   -5.5173   -0.9568 C   0  0  0  0  0  4           0  0  0
    4.1337   -4.9320    1.0933 C   0  0  0  0  0  4           0  0  0
    2.9848   -4.1818   -0.8894 C   0  0  0  0  0  4           0  0  0
    4.0809   -2.5783    0.5762 C   0  0  0  0  0  4           0  0  0
   -9.7372   -1.6547    2.2634 C   0  0  0  0  0  4           0  0  0
    3.3185   -1.3961   -0.0268 C   0  0  0  0  0  4           0  0  0
  1 14  1  0     0  0
  1 15  1  0     0  0
  2 16  1  0     0  0
  3 17  1  0     0  0
  3 33  1  0     0  0
  4 18  1  0     0  0
  4 34  1  0     0  0
  5 31  2  0     0  0
  6 32  1  0     0  0
  7 14  2  0     0  0
  7 22  1  0     0  0
  8 19  1  0     0  0
  8 20  2  0     0  0
  9 19  2  0     0  0
  9 21  1  0     0  0
 10 14  1  0     0  0
 10 20  1  0     0  0
 11 23  1  0     0  0
 11 31  1  0     0  0
 12 32  1  0     0  0
 12 35  1  0     0  0
 12 36  1  0     0  0
 13 37  1  0     0  0
 13 38  1  0     0  0
 13 39  1  0     0  0
 15 22  2  0     0  0
 15 40  1  0     0  0
 16 25  2  0     0  0
 16 26  1  0     0  0
 17 18  2  0     0  0
 17 27  1  0     0  0
 18 28  1  0     0  0
 20 24  1  0     0  0
 21 24  1  0     0  0
 21 27  2  0     0  0
 23 25  1  0     0  0
 23 29  2  0     0  0
 24 28  2  0     0  0
 26 30  2  0     0  0
 29 30  1  0     0  0
 31 40  1  0     0  0
 33 41  1  0     0  0
 35 37  1  0     0  0
 36 38  1  0     0  0
 39 41  1  0     0  0
M  END
> <standard_type>
pIC50

> <# Confs.>
25

> <canonical_smiles>
FC1=CC(NC(CC2=CN=C(NC(C3=C4)=NC=NC3=CC(OCCCN5CCN(CO)CC5)=C4OC)S2)=O)=CC=C1

> <standard_relation>
=

> <Publication_ID>
nan

> <predicted_activity_value>
8.080921907623926

> <actual_activity_value>
8.154901959985743

> <Compound>
2

> <standard_units>
nM

> hash
10397007601345888930

$$$$
1
XXILIB    08252103493D 0   0.00000     0.00000

 41 45  0     1  0            999 V2000
   -7.2332   -0.4203    2.2023 S   0  0  0  0  0  2           0  0  0
   -8.6720   -7.9735    5.4377 F   0  0  0  0  0  1           0  0  0
    1.3665   -0.0000   -0.0000 O   0  0  0  0  0  2           0  0  0
   -0.2265    0.0177    2.3956 O   0  0  0  0  0  2           0  0  0
  -10.8348   -3.5031    1.2007 O   0  0  0  0  0  2           0  0  0
    1.2660    7.1436   -4.5553 O   0  0  0  0  0  2           0  0  0
   -6.8922   -1.2910   -0.1929 N   0  0  0  0  0  3           0  0  0
   -4.7413   -0.1329   -1.6762 N   0  0  0  0  0  3           0  0  0
   -2.5341   -0.1745   -2.6127 N   0  0  0  0  0  3           0  0  0
   -5.0858    0.0071    0.6803 N   0  0  0  0  0  3           0  0  0
   -9.5654   -3.9120    3.1045 N   0  0  0  0  0  3           0  0  0
    2.0025    5.5783   -2.8449 N   0  0  2  0  0  3           0  0  0
    2.3915    2.9124   -1.7892 N   0  0  2  0  0  3           0  0  0
   -6.3032   -0.5809    0.7509 C   0  0  0  0  0  4           0  0  0
   -8.4901   -1.3570    1.5128 C   0  0  0  0  0  4           0  0  0
   -9.2707   -7.3434    4.4175 C   0  0  0  0  0  4           0  0  0
    0.0000    0.0000    0.0000 C   0  0  0  0  0  4           0  0  0
   -0.7842   -0.0000    1.1485 C   0  0  0  0  0  4           0  0  0
   -3.8723   -0.1927   -2.6948 C   0  0  0  0  0  4           0  0  0
   -4.2160   -0.0351   -0.4296 C   0  0  0  0  0  4           0  0  0
   -2.0092   -0.0989   -1.3832 C   0  0  0  0  0  4           0  0  0
   -8.1294   -1.7265    0.2349 C   0  0  0  0  0  4           0  0  0
   -9.7428   -5.3034    3.2169 C   0  0  0  0  0  4           0  0  0
   -2.8125   -0.0368   -0.2252 C   0  0  0  0  0  4           0  0  0
   -9.1216   -5.9649    4.2815 C   0  0  0  0  0  4           0  0  0
  -10.0302   -8.0775    3.5125 C   0  0  0  0  0  4           0  0  0
   -0.6223   -0.0813   -1.2484 C   0  0  0  0  0  4           0  0  0
   -2.1764    0.0066    1.0400 C   0  0  0  0  0  4           0  0  0
  -10.5117   -6.0370    2.3031 C   0  0  0  0  0  4           0  0  0
  -10.6523   -7.4200    2.4539 C   0  0  0  0  0  4           0  0  0
  -10.1091   -3.1124    2.1145 C   0  0  0  0  0  4           0  0  0
    1.2579    6.7912   -3.1737 C   0  0  0  0  0  4           0  0  0
    1.9797    1.1167    0.6447 C   0  0  0  0  0  4           0  0  0
    0.0385   -1.2629    2.9630 C   0  0  0  0  0  4           0  0  0
    1.4760    4.4033   -3.5455 C   0  0  0  0  0  4           0  0  0
    2.0500    5.3369   -1.3999 C   0  0  0  0  0  4           0  0  0
    2.3301    3.1688   -3.2365 C   0  0  0  0  0  4           0  0  0
    2.9022    4.1011   -1.0876 C   0  0  0  0  0  4           0  0  0
    3.2088    1.7258   -1.5173 C   0  0  0  0  0  4           0  0  0
   -9.7372   -1.6547    2.2634 C   0  0  0  0  0  4           0  0  0
    3.3185    1.3961   -0.0268 C   0  0  0  0  0  4           0  0  0
  1 14  1  0     0  0
  1 15  1  0     0  0
  2 16  1  0     0  0
  3 17  1  0     0  0
  3 33  1  0     0  0
  4 18  1  0     0  0
  4 34  1  0     0  0
  5 31  2  0     0  0
  6 32  1  0     0  0
  7 14  2  0     0  0
  7 22  1  0     0  0
  8 19  1  0     0  0
  8 20  2  0     0  0
  9 19  2  0     0  0
  9 21  1  0     0  0
 10 14  1  0     0  0
 10 20  1  0     0  0
 11 23  1  0     0  0
 11 31  1  0     0  0
 12 32  1  0     0  0
 12 35  1  0     0  0
 12 36  1  0     0  0
 13 37  1  0     0  0
 13 38  1  0     0  0
 13 39  1  0     0  0
 15 22  2  0     0  0
 15 40  1  0     0  0
 16 25  2  0     0  0
 16 26  1  0     0  0
 17 18  2  0     0  0
 17 27  1  0     0  0
 18 28  1  0     0  0
 20 24  1  0     0  0
 21 24  1  0     0  0
 21 27  2  0     0  0
 23 25  1  0     0  0
 23 29  2  0     0  0
 24 28  2  0     0  0
 26 30  2  0     0  0
 29 30  1  0     0  0
 31 40  1  0     0  0
 33 41  1  0     0  0
 35 37  1  0     0  0
 36 38  1  0     0  0
 39 41  1  0     0  0
M  END
> <standard_type>
pIC50

> <# Confs.>
25

> <canonical_smiles>
FC1=CC(NC(CC2=CN=C(NC(C3=C4)=NC=NC3=CC(OCCCN5CCN(CO)CC5)=C4OC)S2)=O)=CC=C1

> <standard_relation>
=

> <Publication_ID>
nan

> <predicted_activity_value>
8.080921907623926

> <actual_activity_value>
8.154901959985743

> <Compound>
2

> <standard_units>
nM

> hash
10397007601345888930

$$$$
1
XXILIB    08252103493D 0   0.00000     0.00000

 41 45  0     1  0            999 V2000
   -7.2332   -0.4203    2.2023 S   0  0  0  0  0  2           0  0  0
   -8.6720   -7.9735    5.4377 F   0  0  0  0  0  1           0  0  0
    1.3665   -0.0000   -0.0000 O   0  0  0  0  0  2           0  0  0
   -0.2265    0.0177    2.3956 O   0  0  0  0  0  2           0  0  0
  -10.8348   -3.5031    1.2007 O   0  0  0  0  0  2           0  0  0
    5.4025    3.4340    7.4849 O   0  0  0  0  0  2           0  0  0
   -6.8922   -1.2910   -0.1929 N   0  0  0  0  0  3           0  0  0
   -4.7413   -0.1329   -1.6762 N   0  0  0  0  0  3           0  0  0
   -2.5341   -0.1745   -2.6127 N   0  0  0  0  0  3           0  0  0
   -5.0858    0.0071    0.6803 N   0  0  0  0  0  3           0  0  0
   -9.5654   -3.9120    3.1045 N   0  0  0  0  0  3           0  0  0
    4.7708    2.2935    5.4311 N   0  0  2  0  0  3           0  0  0
    3.9871    2.2497    2.6460 N   0  0  2  0  0  3           0  0  0
   -6.3032   -0.5809    0.7509 C   0  0  0  0  0  4           0  0  0
   -8.4901   -1.3570    1.5128 C   0  0  0  0  0  4           0  0  0
   -9.2707   -7.3434    4.4175 C   0  0  0  0  0  4           0  0  0
    0.0000    0.0000    0.0000 C   0  0  0  0  0  4           0  0  0
   -0.7842   -0.0000    1.1485 C   0  0  0  0  0  4           0  0  0
   -3.8723   -0.1927   -2.6948 C   0  0  0  0  0  4           0  0  0
   -4.2160   -0.0351   -0.4296 C   0  0  0  0  0  4           0  0  0
   -2.0092   -0.0989   -1.3832 C   0  0  0  0  0  4           0  0  0
   -8.1294   -1.7265    0.2349 C   0  0  0  0  0  4           0  0  0
   -9.7428   -5.3034    3.2169 C   0  0  0  0  0  4           0  0  0
   -2.8125   -0.0368   -0.2252 C   0  0  0  0  0  4           0  0  0
   -9.1216   -5.9649    4.2815 C   0  0  0  0  0  4           0  0  0
  -10.0302   -8.0775    3.5125 C   0  0  0  0  0  4           0  0  0
   -0.6223   -0.0813   -1.2484 C   0  0  0  0  0  4           0  0  0
   -2.1764    0.0066    1.0400 C   0  0  0  0  0  4           0  0  0
  -10.5117   -6.0370    2.3031 C   0  0  0  0  0  4           0  0  0
  -10.6523   -7.4200    2.4539 C   0  0  0  0  0  4           0  0  0
  -10.1091   -3.1124    2.1145 C   0  0  0  0  0  4           0  0  0
    4.5811    2.4428    6.8717 C   0  0  0  0  0  4           0  0  0
    1.9797    1.1167    0.6447 C   0  0  0  0  0  4           0  0  0
    0.0385   -1.2629    2.9630 C   0  0  0  0  0  4           0  0  0
    4.4821    3.5349    4.7071 C   0  0  0  0  0  4           0  0  0
    3.9829    1.1846    4.8848 C   0  0  0  0  0  4           0  0  0
    4.7677    3.3609    3.2115 C   0  0  0  0  0  4           0  0  0
    4.2649    1.0092    3.3878 C   0  0  0  0  0  4           0  0  0
    4.2721    2.1045    1.2150 C   0  0  0  0  0  4           0  0  0
   -9.7372   -1.6547    2.2634 C   0  0  0  0  0  4           0  0  0
    3.4930    0.9636    0.5563 C   0  0  0  0  0  4           0  0  0
  1 14  1  0     0  0
  1 15  1  0     0  0
  2 16  1  0     0  0
  3 17  1  0     0  0
  3 33  1  0     0  0
  4 18  1  0     0  0
  4 34  1  0     0  0
  5 31  2  0     0  0
  6 32  1  0     0  0
  7 14  2  0     0  0
  7 22  1  0     0  0
  8 19  1  0     0  0
  8 20  2  0     0  0
  9 19  2  0     0  0
  9 21  1  0     0  0
 10 14  1  0     0  0
 10 20  1  0     0  0
 11 23  1  0     0  0
 11 31  1  0     0  0
 12 32  1  0     0  0
 12 35  1  0     0  0
 12 36  1  0     0  0
 13 37  1  0     0  0
 13 38  1  0     0  0
 13 39  1  0     0  0
 15 22  2  0     0  0
 15 40  1  0     0  0
 16 25  2  0     0  0
 16 26  1  0     0  0
 17 18  2  0     0  0
 17 27  1  0     0  0
 18 28  1  0     0  0
 20 24  1  0     0  0
 21 24  1  0     0  0
 21 27  2  0     0  0
 23 25  1  0     0  0
 23 29  2  0     0  0
 24 28  2  0     0  0
 26 30  2  0     0  0
 29 30  1  0     0  0
 31 40  1  0     0  0
 33 41  1  0     0  0
 35 37  1  0     0  0
 36 38  1  0     0  0
 39 41  1  0     0  0
M  END
> <standard_type>
pIC50

> <# Confs.>
25

> <canonical_smiles>
FC1=CC(NC(CC2=CN=C(NC(C3=C4)=NC=NC3=CC(OCCCN5CCN(CO)CC5)=C4OC)S2)=O)=CC=C1

> <standard_relation>
=

> <Publication_ID>
nan

> <predicted_activity_value>
8.080921907623926

> <actual_activity_value>
8.154901959985743

> <Compound>
2

> <standard_units>
nM

> hash
10397007601345888930

$$$$
1
XXILIB    08252103493D 0   0.00000     0.00000

 41 45  0     1  0            999 V2000
   -7.2332   -0.4203    2.2023 S   0  0  0  0  0  2           0  0  0
   -8.6720   -7.9735    5.4377 F   0  0  0  0  0  1           0  0  0
    1.3665    0.0000   -0.0000 O   0  0  0  0  0  2           0  0  0
   -0.2265    0.0177    2.3956 O   0  0  0  0  0  2           0  0  0
  -10.8348   -3.5031    1.2007 O   0  0  0  0  0  2           0  0  0
    7.7248    1.8449   -6.2022 O   0  0  0  0  0  2           0  0  0
   -6.8922   -1.2910   -0.1929 N   0  0  0  0  0  3           0  0  0
   -4.7413   -0.1329   -1.6762 N   0  0  0  0  0  3           0  0  0
   -2.5341   -0.1745   -2.6127 N   0  0  0  0  0  3           0  0  0
   -5.0858    0.0071    0.6803 N   0  0  0  0  0  3           0  0  0
   -9.5654   -3.9120    3.1045 N   0  0  0  0  0  3           0  0  0
    6.5763    1.4484   -4.0947 N   0  0  2  0  0  3           0  0  0
    4.5054    1.9920   -2.1483 N   0  0  2  0  0  3           0  0  0
   -6.3032   -0.5809    0.7509 C   0  0  0  0  0  4           0  0  0
   -8.4901   -1.3570    1.5128 C   0  0  0  0  0  4           0  0  0
   -9.2707   -7.3434    4.4175 C   0  0  0  0  0  4           0  0  0
    0.0000    0.0000    0.0000 C   0  0  0  0  0  4           0  0  0
   -0.7842   -0.0000    1.1485 C   0  0  0  0  0  4           0  0  0
   -3.8723   -0.1927   -2.6948 C   0  0  0  0  0  4           0  0  0
   -4.2160   -0.0351   -0.4296 C   0  0  0  0  0  4           0  0  0
   -2.0092   -0.0989   -1.3832 C   0  0  0  0  0  4           0  0  0
   -8.1294   -1.7265    0.2349 C   0  0  0  0  0  4           0  0  0
   -9.7428   -5.3034    3.2169 C   0  0  0  0  0  4           0  0  0
   -2.8125   -0.0368   -0.2252 C   0  0  0  0  0  4           0  0  0
   -9.1216   -5.9649    4.2815 C   0  0  0  0  0  4           0  0  0
  -10.0302   -8.0775    3.5125 C   0  0  0  0  0  4           0  0  0
   -0.6223   -0.0813   -1.2484 C   0  0  0  0  0  4           0  0  0
   -2.1764    0.0066    1.0400 C   0  0  0  0  0  4           0  0  0
  -10.5117   -6.0370    2.3031 C   0  0  0  0  0  4           0  0  0
  -10.6523   -7.4200    2.4539 C   0  0  0  0  0  4           0  0  0
  -10.1091   -3.1124    2.1145 C   0  0  0  0  0  4           0  0  0
    7.8420    1.6546   -4.7940 C   0  0  0  0  0  4           0  0  0
    1.9797    1.1167    0.6447 C   0  0  0  0  0  4           0  0  0
    0.0385   -1.2629    2.9630 C   0  0  0  0  0  4           0  0  0
    5.6677    2.5873   -4.2554 C   0  0  0  0  0  4           0  0  0
    6.7757    1.1461   -2.6743 C   0  0  0  0  0  4           0  0  0
    4.3246    2.3005   -3.5753 C   0  0  0  0  0  4           0  0  0
    5.4333    0.8606   -1.9904 C   0  0  0  0  0  4           0  0  0
    3.2088    1.7258   -1.5173 C   0  0  0  0  0  4           0  0  0
   -9.7372   -1.6547    2.2634 C   0  0  0  0  0  4           0  0  0
    3.3185    1.3961   -0.0268 C   0  0  0  0  0  4           0  0  0
  1 14  1  0     0  0
  1 15  1  0     0  0
  2 16  1  0     0  0
  3 17  1  0     0  0
  3 33  1  0     0  0
  4 18  1  0     0  0
  4 34  1  0     0  0
  5 31  2  0     0  0
  6 32  1  0     0  0
  7 14  2  0     0  0
  7 22  1  0     0  0
  8 19  1  0     0  0
  8 20  2  0     0  0
  9 19  2  0     0  0
  9 21  1  0     0  0
 10 14  1  0     0  0
 10 20  1  0     0  0
 11 23  1  0     0  0
 11 31  1  0     0  0
 12 32  1  0     0  0
 12 35  1  0     0  0
 12 36  1  0     0  0
 13 37  1  0     0  0
 13 38  1  0     0  0
 13 39  1  0     0  0
 15 22  2  0     0  0
 15 40  1  0     0  0
 16 25  2  0     0  0
 16 26  1  0     0  0
 17 18  2  0     0  0
 17 27  1  0     0  0
 18 28  1  0     0  0
 20 24  1  0     0  0
 21 24  1  0     0  0
 21 27  2  0     0  0
 23 25  1  0     0  0
 23 29  2  0     0  0
 24 28  2  0     0  0
 26 30  2  0     0  0
 29 30  1  0     0  0
 31 40  1  0     0  0
 33 41  1  0     0  0
 35 37  1  0     0  0
 36 38  1  0     0  0
 39 41  1  0     0  0
M  END
> <standard_type>
pIC50

> <# Confs.>
25

> <canonical_smiles>
FC1=CC(NC(CC2=CN=C(NC(C3=C4)=NC=NC3=CC(OCCCN5CCN(CO)CC5)=C4OC)S2)=O)=CC=C1

> <standard_relation>
=

> <Publication_ID>
nan

> <predicted_activity_value>
8.080921907623926

> <actual_activity_value>
8.154901959985743

> <Compound>
2

> <standard_units>
nM

> hash
10397007601345888930

$$$$
1
XXILIB    08252103493D 0   0.00000     0.00000

 41 45  0     1  0            999 V2000
   -7.2332   -0.4203    2.2023 S   0  0  0  0  0  2           0  0  0
   -8.6720   -7.9735    5.4377 F   0  0  0  0  0  1           0  0  0
    1.3665   -0.0000    0.0000 O   0  0  0  0  0  2           0  0  0
   -0.2265    0.0177    2.3956 O   0  0  0  0  0  2           0  0  0
  -10.8348   -3.5031    1.2007 O   0  0  0  0  0  2           0  0  0
    2.1641    8.2987   -1.8649 O   0  0  0  0  0  2           0  0  0
   -6.8922   -1.2910   -0.1929 N   0  0  0  0  0  3           0  0  0
   -4.7413   -0.1329   -1.6762 N   0  0  0  0  0  3           0  0  0
   -2.5341   -0.1745   -2.6127 N   0  0  0  0  0  3           0  0  0
   -5.0858    0.0071    0.6803 N   0  0  0  0  0  3           0  0  0
   -9.5654   -3.9120    3.1045 N   0  0  0  0  0  3           0  0  0
    3.0318    6.5860   -0.3711 N   0  0  2  0  0  3           0  0  0
    3.3440    3.8435    0.4972 N   0  0  2  0  0  3           0  0  0
   -6.3032   -0.5809    0.7509 C   0  0  0  0  0  4           0  0  0
   -8.4901   -1.3570    1.5128 C   0  0  0  0  0  4           0  0  0
   -9.2707   -7.3434    4.4175 C   0  0  0  0  0  4           0  0  0
    0.0000    0.0000    0.0000 C   0  0  0  0  0  4           0  0  0
   -0.7842   -0.0000    1.1485 C   0  0  0  0  0  4           0  0  0
   -3.8723   -0.1927   -2.6948 C   0  0  0  0  0  4           0  0  0
   -4.2160   -0.0351   -0.4296 C   0  0  0  0  0  4           0  0  0
   -2.0092   -0.0989   -1.3832 C   0  0  0  0  0  4           0  0  0
   -8.1294   -1.7265    0.2349 C   0  0  0  0  0  4           0  0  0
   -9.7428   -5.3034    3.2169 C   0  0  0  0  0  4           0  0  0
   -2.8125   -0.0368   -0.2252 C   0  0  0  0  0  4           0  0  0
   -9.1216   -5.9649    4.2815 C   0  0  0  0  0  4           0  0  0
  -10.0302   -8.0775    3.5125 C   0  0  0  0  0  4           0  0  0
   -0.6223   -0.0813   -1.2484 C   0  0  0  0  0  4           0  0  0
   -2.1764    0.0066    1.0400 C   0  0  0  0  0  4           0  0  0
  -10.5117   -6.0370    2.3031 C   0  0  0  0  0  4           0  0  0
  -10.6523   -7.4200    2.4539 C   0  0  0  0  0  4           0  0  0
  -10.1091   -3.1124    2.1145 C   0  0  0  0  0  4           0  0  0
    2.3590    7.8742   -0.5178 C   0  0  0  0  0  4           0  0  0
    1.9797    1.1167    0.6447 C   0  0  0  0  0  4           0  0  0
    0.0385   -1.2629    2.9630 C   0  0  0  0  0  4           0  0  0
    2.2858    5.4999   -1.0133 C   0  0  0  0  0  4           0  0  0
    3.3025    6.2637    1.0331 C   0  0  0  0  0  4           0  0  0
    3.0607    4.1820   -0.9061 C   0  0  0  0  0  4           0  0  0
    4.0760    4.9444    1.1438 C   0  0  0  0  0  4           0  0  0
    4.0809    2.5783    0.5762 C   0  0  0  0  0  4           0  0  0
   -9.7372   -1.6547    2.2634 C   0  0  0  0  0  4           0  0  0
    3.3185    1.3961   -0.0268 C   0  0  0  0  0  4           0  0  0
  1 14  1  0     0  0
  1 15  1  0     0  0
  2 16  1  0     0  0
  3 17  1  0     0  0
  3 33  1  0     0  0
  4 18  1  0     0  0
  4 34  1  0     0  0
  5 31  2  0     0  0
  6 32  1  0     0  0
  7 14  2  0     0  0
  7 22  1  0     0  0
  8 19  1  0     0  0
  8 20  2  0     0  0
  9 19  2  0     0  0
  9 21  1  0     0  0
 10 14  1  0     0  0
 10 20  1  0     0  0
 11 23  1  0     0  0
 11 31  1  0     0  0
 12 32  1  0     0  0
 12 35  1  0     0  0
 12 36  1  0     0  0
 13 37  1  0     0  0
 13 38  1  0     0  0
 13 39  1  0     0  0
 15 22  2  0     0  0
 15 40  1  0     0  0
 16 25  2  0     0  0
 16 26  1  0     0  0
 17 18  2  0     0  0
 17 27  1  0     0  0
 18 28  1  0     0  0
 20 24  1  0     0  0
 21 24  1  0     0  0
 21 27  2  0     0  0
 23 25  1  0     0  0
 23 29  2  0     0  0
 24 28  2  0     0  0
 26 30  2  0     0  0
 29 30  1  0     0  0
 31 40  1  0     0  0
 33 41  1  0     0  0
 35 37  1  0     0  0
 36 38  1  0     0  0
 39 41  1  0     0  0
M  END
> <standard_type>
pIC50

> <# Confs.>
25

> <canonical_smiles>
FC1=CC(NC(CC2=CN=C(NC(C3=C4)=NC=NC3=CC(OCCCN5CCN(CO)CC5)=C4OC)S2)=O)=CC=C1

> <standard_relation>
=

> <Publication_ID>
nan

> <predicted_activity_value>
8.080921907623926

> <actual_activity_value>
8.154901959985743

> <Compound>
2

> <standard_units>
nM

> hash
10397007601345888930

$$$$
1
XXILIB    08252103493D 0   0.00000     0.00000

 41 45  0     1  0            999 V2000
   -7.2332   -0.4203    2.2023 S   0  0  0  0  0  2           0  0  0
  -14.3587    3.4541    0.3448 F   0  0  0  0  0  1           0  0  0
    1.3665    0.0000   -0.0000 O   0  0  0  0  0  2           0  0  0
   -0.2265    0.0177    2.3956 O   0  0  0  0  0  2           0  0  0
  -11.4107   -2.3597    0.6972 O   0  0  0  0  0  2           0  0  0
    9.1047    6.0261   -1.7108 O   0  0  0  0  0  2           0  0  0
   -6.8922   -1.2910   -0.1929 N   0  0  0  0  0  3           0  0  0
   -4.7413   -0.1329   -1.6762 N   0  0  0  0  0  3           0  0  0
   -2.5341   -0.1745   -2.6127 N   0  0  0  0  0  3           0  0  0
   -5.0858    0.0071    0.6803 N   0  0  0  0  0  3           0  0  0
  -11.4350   -0.1535    1.4289 N   0  0  0  0  0  3           0  0  0
    7.2121    4.5058   -1.5546 N   0  0  2  0  0  3           0  0  0
    5.3665    2.8339   -0.0810 N   0  0  2  0  0  3           0  0  0
   -6.3032   -0.5809    0.7509 C   0  0  0  0  0  4           0  0  0
   -8.4901   -1.3570    1.5128 C   0  0  0  0  0  4           0  0  0
  -14.0132    2.1688    0.1861 C   0  0  0  0  0  4           0  0  0
    0.0000    0.0000    0.0000 C   0  0  0  0  0  4           0  0  0
   -0.7842   -0.0000    1.1485 C   0  0  0  0  0  4           0  0  0
   -3.8723   -0.1927   -2.6948 C   0  0  0  0  0  4           0  0  0
   -4.2160   -0.0351   -0.4296 C   0  0  0  0  0  4           0  0  0
   -2.0092   -0.0989   -1.3832 C   0  0  0  0  0  4           0  0  0
   -8.1294   -1.7265    0.2349 C   0  0  0  0  0  4           0  0  0
  -12.5485    0.3244    0.7133 C   0  0  0  0  0  4           0  0  0
   -2.8125   -0.0368   -0.2252 C   0  0  0  0  0  4           0  0  0
  -12.9113    1.6657    0.8742 C   0  0  0  0  0  4           0  0  0
  -14.7615    1.3604   -0.6631 C   0  0  0  0  0  4           0  0  0
   -0.6223   -0.0813   -1.2484 C   0  0  0  0  0  4           0  0  0
   -2.1764    0.0066    1.0400 C   0  0  0  0  0  4           0  0  0
  -13.2968   -0.4949   -0.1430 C   0  0  0  0  0  4           0  0  0
  -14.3996    0.0254   -0.8273 C   0  0  0  0  0  4           0  0  0
  -10.9476   -1.4478    1.3815 C   0  0  0  0  0  4           0  0  0
    8.4689    4.8529   -2.2131 C   0  0  0  0  0  4           0  0  0
    1.9797    1.1167    0.6447 C   0  0  0  0  0  4           0  0  0
    0.0385   -1.2629    2.9630 C   0  0  0  0  0  4           0  0  0
    7.3920    4.2626   -0.1203 C   0  0  0  0  0  4           0  0  0
    6.5554    3.3606   -2.1918 C   0  0  0  0  0  4           0  0  0
    6.0421    3.9795    0.5478 C   0  0  0  0  0  4           0  0  0
    5.2053    3.0734   -1.5241 C   0  0  0  0  0  4           0  0  0
    4.0809    2.5783    0.5762 C   0  0  0  0  0  4           0  0  0
   -9.7372   -1.6547    2.2634 C   0  0  0  0  0  4           0  0  0
    3.3185    1.3961   -0.0268 C   0  0  0  0  0  4           0  0  0
  1 14  1  0     0  0
  1 15  1  0     0  0
  2 16  1  0     0  0
  3 17  1  0     0  0
  3 33  1  0     0  0
  4 18  1  0     0  0
  4 34  1  0     0  0
  5 31  2  0     0  0
  6 32  1  0     0  0
  7 14  2  0     0  0
  7 22  1  0     0  0
  8 19  1  0     0  0
  8 20  2  0     0  0
  9 19  2  0     0  0
  9 21  1  0     0  0
 10 14  1  0     0  0
 10 20  1  0     0  0
 11 23  1  0     0  0
 11 31  1  0     0  0
 12 32  1  0     0  0
 12 35  1  0     0  0
 12 36  1  0     0  0
 13 37  1  0     0  0
 13 38  1  0     0  0
 13 39  1  0     0  0
 15 22  2  0     0  0
 15 40  1  0     0  0
 16 25  2  0     0  0
 16 26  1  0     0  0
 17 18  2  0     0  0
 17 27  1  0     0  0
 18 28  1  0     0  0
 20 24  1  0     0  0
 21 24  1  0     0  0
 21 27  2  0     0  0
 23 25  1  0     0  0
 23 29  2  0     0  0
 24 28  2  0     0  0
 26 30  2  0     0  0
 29 30  1  0     0  0
 31 40  1  0     0  0
 33 41  1  0     0  0
 35 37  1  0     0  0
 36 38  1  0     0  0
 39 41  1  0     0  0
M  END
> <standard_type>
pIC50

> <# Confs.>
25

> <canonical_smiles>
FC1=CC(NC(CC2=CN=C(NC(C3=C4)=NC=NC3=CC(OCCCN5CCN(CO)CC5)=C4OC)S2)=O)=CC=C1

> <standard_relation>
=

> <Publication_ID>
nan

> <predicted_activity_value>
8.080921907623926

> <actual_activity_value>
8.154901959985743

> <Compound>
2

> <standard_units>
nM

> hash
10397007601345888930

$$$$
1
XXILIB    08252103493D 0   0.00000     0.00000

 41 45  0     1  0            999 V2000
   -7.2332   -0.4203    2.2023 S   0  0  0  0  0  2           0  0  0
  -11.9157    4.6369    4.8730 F   0  0  0  0  0  1           0  0  0
    1.3665    0.0000   -0.0000 O   0  0  0  0  0  2           0  0  0
   -0.2265    0.0177    2.3956 O   0  0  0  0  0  2           0  0  0
  -11.5799   -0.6700    1.0863 O   0  0  0  0  0  2           0  0  0
    9.1047    6.0261   -1.7108 O   0  0  0  0  0  2           0  0  0
   -6.8922   -1.2910   -0.1929 N   0  0  0  0  0  3           0  0  0
   -4.7413   -0.1329   -1.6762 N   0  0  0  0  0  3           0  0  0
   -2.5341   -0.1745   -2.6127 N   0  0  0  0  0  3           0  0  0
   -5.0858    0.0071    0.6803 N   0  0  0  0  0  3           0  0  0
  -10.6925    0.4674    2.9089 N   0  0  0  0  0  3           0  0  0
    7.2121    4.5058   -1.5546 N   0  0  2  0  0  3           0  0  0
    5.3665    2.8339   -0.0810 N   0  0  2  0  0  3           0  0  0
   -6.3032   -0.5809    0.7509 C   0  0  0  0  0  4           0  0  0
   -8.4901   -1.3570    1.5128 C   0  0  0  0  0  4           0  0  0
  -12.1253    3.7054    3.9323 C   0  0  0  0  0  4           0  0  0
    0.0000    0.0000    0.0000 C   0  0  0  0  0  4           0  0  0
   -0.7842   -0.0000    1.1485 C   0  0  0  0  0  4           0  0  0
   -3.8723   -0.1927   -2.6948 C   0  0  0  0  0  4           0  0  0
   -4.2160   -0.0351   -0.4296 C   0  0  0  0  0  4           0  0  0
   -2.0092   -0.0989   -1.3832 C   0  0  0  0  0  4           0  0  0
   -8.1294   -1.7265    0.2349 C   0  0  0  0  0  4           0  0  0
  -11.5279    1.5999    2.9149 C   0  0  0  0  0  4           0  0  0
   -2.8125   -0.0368   -0.2252 C   0  0  0  0  0  4           0  0  0
  -11.3112    2.5755    3.8936 C   0  0  0  0  0  4           0  0  0
  -13.1524    3.8839    3.0114 C   0  0  0  0  0  4           0  0  0
   -0.6223   -0.0813   -1.2484 C   0  0  0  0  0  4           0  0  0
   -2.1764    0.0066    1.0400 C   0  0  0  0  0  4           0  0  0
  -12.5594    1.7751    1.9823 C   0  0  0  0  0  4           0  0  0
  -13.3673    2.9152    2.0340 C   0  0  0  0  0  4           0  0  0
  -10.7742   -0.5836    2.0124 C   0  0  0  0  0  4           0  0  0
    8.4689    4.8529   -2.2131 C   0  0  0  0  0  4           0  0  0
    1.9797    1.1167    0.6447 C   0  0  0  0  0  4           0  0  0
    0.0385   -1.2629    2.9630 C   0  0  0  0  0  4           0  0  0
    7.3920    4.2626   -0.1203 C   0  0  0  0  0  4           0  0  0
    6.5554    3.3606   -2.1918 C   0  0  0  0  0  4           0  0  0
    6.0421    3.9795    0.5478 C   0  0  0  0  0  4           0  0  0
    5.2053    3.0734   -1.5241 C   0  0  0  0  0  4           0  0  0
    4.0809    2.5783    0.5762 C   0  0  0  0  0  4           0  0  0
   -9.7372   -1.6547    2.2634 C   0  0  0  0  0  4           0  0  0
    3.3185    1.3961   -0.0268 C   0  0  0  0  0  4           0  0  0
  1 14  1  0     0  0
  1 15  1  0     0  0
  2 16  1  0     0  0
  3 17  1  0     0  0
  3 33  1  0     0  0
  4 18  1  0     0  0
  4 34  1  0     0  0
  5 31  2  0     0  0
  6 32  1  0     0  0
  7 14  2  0     0  0
  7 22  1  0     0  0
  8 19  1  0     0  0
  8 20  2  0     0  0
  9 19  2  0     0  0
  9 21  1  0     0  0
 10 14  1  0     0  0
 10 20  1  0     0  0
 11 23  1  0     0  0
 11 31  1  0     0  0
 12 32  1  0     0  0
 12 35  1  0     0  0
 12 36  1  0     0  0
 13 37  1  0     0  0
 13 38  1  0     0  0
 13 39  1  0     0  0
 15 22  2  0     0  0
 15 40  1  0     0  0
 16 25  2  0     0  0
 16 26  1  0     0  0
 17 18  2  0     0  0
 17 27  1  0     0  0
 18 28  1  0     0  0
 20 24  1  0     0  0
 21 24  1  0     0  0
 21 27  2  0     0  0
 23 25  1  0     0  0
 23 29  2  0     0  0
 24 28  2  0     0  0
 26 30  2  0     0  0
 29 30  1  0     0  0
 31 40  1  0     0  0
 33 41  1  0     0  0
 35 37  1  0     0  0
 36 38  1  0     0  0
 39 41  1  0     0  0
M  END
> <standard_type>
pIC50

> <# Confs.>
25

> <canonical_smiles>
FC1=CC(NC(CC2=CN=C(NC(C3=C4)=NC=NC3=CC(OCCCN5CCN(CO)CC5)=C4OC)S2)=O)=CC=C1

> <standard_relation>
=

> <Publication_ID>
nan

> <predicted_activity_value>
8.080921907623926

> <actual_activity_value>
8.154901959985743

> <Compound>
2

> <standard_units>
nM

> hash
10397007601345888930

$$$$
2
XXILIB    08252103493D 0   0.00000     0.00000

 41 45  0     1  0            999 V2000
   -6.8804   -0.4089    3.1470 S   0  0  0  0  0  2           0  0  0
   -6.3554   -4.1809    9.4833 F   0  0  0  0  0  1           0  0  0
    1.3667   -0.0000    0.0000 O   0  0  0  0  0  2           0  0  0
    0.2177   -0.0024    2.3373 O   0  0  0  0  0  2           0  0  0
   -9.4492   -4.0304    3.7381 O   0  0  0  0  0  2           0  0  0
    4.9476    4.6871   -6.9610 O   0  0  0  0  0  2           0  0  0
   -6.8794   -1.1959    0.6986 N   0  0  0  0  0  3           0  0  0
   -4.9314   -0.0106   -1.0184 N   0  0  0  0  0  3           0  0  0
   -2.8735   -0.0286   -2.2467 N   0  0  0  0  0  3           0  0  0
   -4.9501    0.0475    1.3655 N   0  0  0  0  0  3           0  0  0
   -8.4272   -2.7939    5.4206 N   0  0  0  0  0  3           0  0  0
    3.9770    1.1686   -3.2730 N   0  0  1  0  0  3           0  0  0
   -6.1570   -0.5277    1.5781 C   0  0  0  0  0  4           0  0  0
   -8.2256   -1.3195    2.6072 C   0  0  0  0  0  4           0  0  0
   -6.9921   -4.5081    8.3501 C   0  0  0  0  0  4           0  0  0
    0.0000    0.0000    0.0000 C   0  0  0  0  0  4           0  0  0
   -0.6166    0.0000    1.2550 C   0  0  0  0  0  4           0  0  0
   -4.2104   -0.0337   -2.1473 C   0  0  0  0  0  4           0  0  0
   -4.2389    0.0348    0.1470 C   0  0  0  0  0  4           0  0  0
   -2.1847   -0.0091   -1.0980 C   0  0  0  0  0  4           0  0  0
   -8.0477   -1.6451    1.2796 C   0  0  0  0  0  4           0  0  0
   -8.0477   -3.8369    6.2866 C   0  0  0  0  0  4           0  0  0
   -2.8197    0.0123    0.1589 C   0  0  0  0  0  4           0  0  0
   -7.3838   -3.5011    7.4709 C   0  0  0  0  0  4           0  0  0
   -7.2499   -5.8464    8.0718 C   0  0  0  0  0  4           0  0  0
   -0.7927   -0.0125   -1.1550 C   0  0  0  0  0  4           0  0  0
   -2.0142    0.0046    1.3272 C   0  0  0  0  0  4           0  0  0
   -8.3123   -5.1833    6.0008 C   0  0  0  0  0  4           0  0  0
   -7.9142   -6.1823    6.8944 C   0  0  0  0  0  4           0  0  0
   -9.0883   -2.9552    4.2150 C   0  0  0  0  0  4           0  0  0
    1.9787    0.0000   -1.2901 C   0  0  0  0  0  4           0  0  0
    4.2973    4.7490   -5.6983 C   0  0  0  0  0  4           0  0  0
   -0.4295   -0.0023    3.6076 C   0  0  0  0  0  4           0  0  0
    4.2691    0.0000   -2.4392 C   0  0  0  0  0  4           0  0  0
    4.3204    2.4219   -2.5814 C   0  0  0  0  0  4           0  0  0
    4.6961    1.0654   -4.5527 C   0  0  0  0  0  4           0  0  0
   -9.3572   -1.6429    3.5137 C   0  0  0  0  0  4           0  0  0
    4.6916    3.5804   -4.8017 C   0  0  1  0  0  4           0  0  0
    3.4928    0.0000   -1.1205 C   0  0  0  0  0  4           0  0  0
    3.9902    3.6466   -3.4387 C   0  0  0  0  0  4           0  0  0
    4.3743    2.2427   -5.4751 C   0  0  0  0  0  4           0  0  0
  1 13  1  0     0  0
  1 14  1  0     0  0
  2 15  1  0     0  0
  3 16  1  0     0  0
  3 31  1  0     0  0
  4 17  1  0     0  0
  4 33  1  0     0  0
  5 30  2  0     0  0
  6 32  1  0     0  0
  7 13  2  0     0  0
  7 21  1  0     0  0
  8 18  1  0     0  0
  8 19  2  0     0  0
  9 18  2  0     0  0
  9 20  1  0     0  0
 10 13  1  0     0  0
 10 19  1  0     0  0
 11 22  1  0     0  0
 11 30  1  0     0  0
 12 34  1  0     0  0
 12 35  1  0     0  0
 12 36  1  0     0  0
 14 21  2  0     0  0
 14 37  1  0     0  0
 15 24  2  0     0  0
 15 25  1  0     0  0
 16 17  2  0     0  0
 16 26  1  0     0  0
 17 27  1  0     0  0
 19 23  1  0     0  0
 20 23  1  0     0  0
 20 26  2  0     0  0
 22 24  1  0     0  0
 22 28  2  0     0  0
 23 27  2  0     0  0
 25 29  2  0     0  0
 28 29  1  0     0  0
 30 37  1  0     0  0
 31 39  1  0     0  0
 32 38  1  0     0  0
 34 39  1  0     0  0
 35 40  1  0     0  0
 36 41  1  0     0  0
 38 40  1  0     0  0
 38 41  1  0     0  0
M  END
> <standard_type>
pIC50

> <# Confs.>
25

> <canonical_smiles>
FC1=CC(NC(CC2=CN=C(NC(C3=C4)=NC=NC3=CC(OCCCN5CCC(CO)CC5)=C4OC)S2)=O)=CC=C1

> <standard_relation>
=

> <Publication_ID>
nan

> <predicted_activity_value>
8.013228265733755

> <actual_activity_value>
8.154901959985743

> <Compound>
3

> <standard_units>
nM

> hash
6019588431572444200

$$$$
2
XXILIB    08252103493D 0   0.00000     0.00000

 41 45  0     1  0            999 V2000
   -6.8804   -0.4089    3.1470 S   0  0  0  0  0  2           0  0  0
   -7.8365   -8.0699    6.2468 F   0  0  0  0  0  1           0  0  0
    1.3667   -0.0000    0.0000 O   0  0  0  0  0  2           0  0  0
    0.2177   -0.0024    2.3373 O   0  0  0  0  0  2           0  0  0
  -10.5800   -3.4586    2.5304 O   0  0  0  0  0  2           0  0  0
    4.9476    4.6871   -6.9610 O   0  0  0  0  0  2           0  0  0
   -6.8794   -1.1959    0.6986 N   0  0  0  0  0  3           0  0  0
   -4.9314   -0.0106   -1.0184 N   0  0  0  0  0  3           0  0  0
   -2.8735   -0.0286   -2.2467 N   0  0  0  0  0  3           0  0  0
   -4.9501    0.0475    1.3655 N   0  0  0  0  0  3           0  0  0
   -9.0601   -3.9301    4.2251 N   0  0  0  0  0  3           0  0  0
    3.9770    1.1686   -3.2730 N   0  0  1  0  0  3           0  0  0
   -6.1570   -0.5277    1.5781 C   0  0  0  0  0  4           0  0  0
   -8.2256   -1.3195    2.6072 C   0  0  0  0  0  4           0  0  0
   -8.5722   -7.4075    5.3430 C   0  0  0  0  0  4           0  0  0
    0.0000    0.0000    0.0000 C   0  0  0  0  0  4           0  0  0
   -0.6166    0.0000    1.2550 C   0  0  0  0  0  4           0  0  0
   -4.2104   -0.0337   -2.1473 C   0  0  0  0  0  4           0  0  0
   -4.2389    0.0348    0.1470 C   0  0  0  0  0  4           0  0  0
   -2.1847   -0.0091   -1.0980 C   0  0  0  0  0  4           0  0  0
   -8.0477   -1.6451    1.2796 C   0  0  0  0  0  4           0  0  0
   -9.2126   -5.3277    4.3006 C   0  0  0  0  0  4           0  0  0
   -2.8197    0.0123    0.1589 C   0  0  0  0  0  4           0  0  0
   -8.4480   -6.0237    5.2423 C   0  0  0  0  0  4           0  0  0
   -9.4457   -8.1130    4.5220 C   0  0  0  0  0  4           0  0  0
   -0.7927   -0.0125   -1.1550 C   0  0  0  0  0  4           0  0  0
   -2.0142    0.0046    1.3272 C   0  0  0  0  0  4           0  0  0
  -10.0961   -6.0320    3.4713 C   0  0  0  0  0  4           0  0  0
  -10.2105   -7.4208    3.5858 C   0  0  0  0  0  4           0  0  0
   -9.7388   -3.0971    3.3523 C   0  0  0  0  0  4           0  0  0
    1.9787    0.0000   -1.2901 C   0  0  0  0  0  4           0  0  0
    4.2973    4.7490   -5.6983 C   0  0  0  0  0  4           0  0  0
   -0.4295   -0.0023    3.6076 C   0  0  0  0  0  4           0  0  0
    4.2691    0.0000   -2.4392 C   0  0  0  0  0  4           0  0  0
    4.3204    2.4219   -2.5814 C   0  0  0  0  0  4           0  0  0
    4.6961    1.0654   -4.5527 C   0  0  0  0  0  4           0  0  0
   -9.3572   -1.6429    3.5137 C   0  0  0  0  0  4           0  0  0
    4.6916    3.5804   -4.8017 C   0  0  1  0  0  4           0  0  0
    3.4928    0.0000   -1.1205 C   0  0  0  0  0  4           0  0  0
    3.9902    3.6466   -3.4387 C   0  0  0  0  0  4           0  0  0
    4.3743    2.2427   -5.4751 C   0  0  0  0  0  4           0  0  0
  1 13  1  0     0  0
  1 14  1  0     0  0
  2 15  1  0     0  0
  3 16  1  0     0  0
  3 31  1  0     0  0
  4 17  1  0     0  0
  4 33  1  0     0  0
  5 30  2  0     0  0
  6 32  1  0     0  0
  7 13  2  0     0  0
  7 21  1  0     0  0
  8 18  1  0     0  0
  8 19  2  0     0  0
  9 18  2  0     0  0
  9 20  1  0     0  0
 10 13  1  0     0  0
 10 19  1  0     0  0
 11 22  1  0     0  0
 11 30  1  0     0  0
 12 34  1  0     0  0
 12 35  1  0     0  0
 12 36  1  0     0  0
 14 21  2  0     0  0
 14 37  1  0     0  0
 15 24  2  0     0  0
 15 25  1  0     0  0
 16 17  2  0     0  0
 16 26  1  0     0  0
 17 27  1  0     0  0
 19 23  1  0     0  0
 20 23  1  0     0  0
 20 26  2  0     0  0
 22 24  1  0     0  0
 22 28  2  0     0  0
 23 27  2  0     0  0
 25 29  2  0     0  0
 28 29  1  0     0  0
 30 37  1  0     0  0
 31 39  1  0     0  0
 32 38  1  0     0  0
 34 39  1  0     0  0
 35 40  1  0     0  0
 36 41  1  0     0  0
 38 40  1  0     0  0
 38 41  1  0     0  0
M  END
> <standard_type>
pIC50

> <# Confs.>
25

> <canonical_smiles>
FC1=CC(NC(CC2=CN=C(NC(C3=C4)=NC=NC3=CC(OCCCN5CCC(CO)CC5)=C4OC)S2)=O)=CC=C1

> <standard_relation>
=

> <Publication_ID>
nan

> <predicted_activity_value>
8.013228265733755

> <actual_activity_value>
8.154901959985743

> <Compound>
3

> <standard_units>
nM

> hash
6019588431572444200

$$$$
2
XXILIB    08252103493D 0   0.00000     0.00000

 41 45  0     1  0            999 V2000
   -6.8804   -0.4089    3.1470 S   0  0  0  0  0  2           0  0  0
  -14.1166    3.5667    2.3753 F   0  0  0  0  0  1           0  0  0
    1.3667   -0.0000    0.0000 O   0  0  0  0  0  2           0  0  0
    0.2177   -0.0024    2.3373 O   0  0  0  0  0  2           0  0  0
  -11.2240   -2.2799    2.1469 O   0  0  0  0  0  2           0  0  0
    4.9476    4.6871   -6.9610 O   0  0  0  0  0  2           0  0  0
   -6.8794   -1.1959    0.6986 N   0  0  0  0  0  3           0  0  0
   -4.9314   -0.0106   -1.0184 N   0  0  0  0  0  3           0  0  0
   -2.8735   -0.0286   -2.2467 N   0  0  0  0  0  3           0  0  0
   -4.9501    0.0475    1.3655 N   0  0  0  0  0  3           0  0  0
  -11.1290   -0.1021    2.9547 N   0  0  0  0  0  3           0  0  0
    3.9770    1.1686   -3.2730 N   0  0  1  0  0  3           0  0  0
   -6.1570   -0.5277    1.5781 C   0  0  0  0  0  4           0  0  0
   -8.2256   -1.3195    2.6072 C   0  0  0  0  0  4           0  0  0
  -13.8122    2.2849    2.1284 C   0  0  0  0  0  4           0  0  0
    0.0000    0.0000    0.0000 C   0  0  0  0  0  4           0  0  0
   -0.6166    0.0000    1.2550 C   0  0  0  0  0  4           0  0  0
   -4.2104   -0.0337   -2.1473 C   0  0  0  0  0  4           0  0  0
   -4.2389    0.0348    0.1470 C   0  0  0  0  0  4           0  0  0
   -2.1847   -0.0091   -1.0980 C   0  0  0  0  0  4           0  0  0
   -8.0477   -1.6451    1.2796 C   0  0  0  0  0  4           0  0  0
  -12.3190    0.4094    2.4031 C   0  0  0  0  0  4           0  0  0
   -2.8197    0.0123    0.1589 C   0  0  0  0  0  4           0  0  0
  -12.6412    1.7465    2.6570 C   0  0  0  0  0  4           0  0  0
  -14.6702    1.5154    1.3496 C   0  0  0  0  0  4           0  0  0
   -0.7927   -0.0125   -1.1550 C   0  0  0  0  0  4           0  0  0
   -2.0142    0.0046    1.3272 C   0  0  0  0  0  4           0  0  0
  -13.1782   -0.3713    1.6177 C   0  0  0  0  0  4           0  0  0
  -14.3490    0.1844    1.0930 C   0  0  0  0  0  4           0  0  0
  -10.6672   -1.3979    2.7995 C   0  0  0  0  0  4           0  0  0
    1.9787    0.0000   -1.2901 C   0  0  0  0  0  4           0  0  0
    4.2973    4.7490   -5.6983 C   0  0  0  0  0  4           0  0  0
   -0.4295   -0.0023    3.6076 C   0  0  0  0  0  4           0  0  0
    4.2691    0.0000   -2.4392 C   0  0  0  0  0  4           0  0  0
    4.3204    2.4219   -2.5814 C   0  0  0  0  0  4           0  0  0
    4.6961    1.0654   -4.5527 C   0  0  0  0  0  4           0  0  0
   -9.3572   -1.6429    3.5137 C   0  0  0  0  0  4           0  0  0
    4.6916    3.5804   -4.8017 C   0  0  1  0  0  4           0  0  0
    3.4928    0.0000   -1.1205 C   0  0  0  0  0  4           0  0  0
    3.9902    3.6466   -3.4387 C   0  0  0  0  0  4           0  0  0
    4.3743    2.2427   -5.4751 C   0  0  0  0  0  4           0  0  0
  1 13  1  0     0  0
  1 14  1  0     0  0
  2 15  1  0     0  0
  3 16  1  0     0  0
  3 31  1  0     0  0
  4 17  1  0     0  0
  4 33  1  0     0  0
  5 30  2  0     0  0
  6 32  1  0     0  0
  7 13  2  0     0  0
  7 21  1  0     0  0
  8 18  1  0     0  0
  8 19  2  0     0  0
  9 18  2  0     0  0
  9 20  1  0     0  0
 10 13  1  0     0  0
 10 19  1  0     0  0
 11 22  1  0     0  0
 11 30  1  0     0  0
 12 34  1  0     0  0
 12 35  1  0     0  0
 12 36  1  0     0  0
 14 21  2  0     0  0
 14 37  1  0     0  0
 15 24  2  0     0  0
 15 25  1  0     0  0
 16 17  2  0     0  0
 16 26  1  0     0  0
 17 27  1  0     0  0
 19 23  1  0     0  0
 20 23  1  0     0  0
 20 26  2  0     0  0
 22 24  1  0     0  0
 22 28  2  0     0  0
 23 27  2  0     0  0
 25 29  2  0     0  0
 28 29  1  0     0  0
 30 37  1  0     0  0
 31 39  1  0     0  0
 32 38  1  0     0  0
 34 39  1  0     0  0
 35 40  1  0     0  0
 36 41  1  0     0  0
 38 40  1  0     0  0
 38 41  1  0     0  0
M  END
> <standard_type>
pIC50

> <# Confs.>
25

> <canonical_smiles>
FC1=CC(NC(CC2=CN=C(NC(C3=C4)=NC=NC3=CC(OCCCN5CCC(CO)CC5)=C4OC)S2)=O)=CC=C1

> <standard_relation>
=

> <Publication_ID>
nan

> <predicted_activity_value>
8.013228265733755

> <actual_activity_value>
8.154901959985743

> <Compound>
3

> <standard_units>
nM

> hash
6019588431572444200

$$$$
2
XXILIB    08252103493D 0   0.00000     0.00000

 41 45  0     1  0            999 V2000
   -6.8804   -0.4089    3.1470 S   0  0  0  0  0  2           0  0  0
  -11.0510    4.5930    6.5686 F   0  0  0  0  0  1           0  0  0
    1.3667   -0.0000    0.0000 O   0  0  0  0  0  2           0  0  0
    0.2177   -0.0024    2.3373 O   0  0  0  0  0  2           0  0  0
  -11.3247   -0.5980    2.6214 O   0  0  0  0  0  2           0  0  0
    4.9476    4.6871   -6.9610 O   0  0  0  0  0  2           0  0  0
   -6.8794   -1.1959    0.6986 N   0  0  0  0  0  3           0  0  0
   -4.9314   -0.0106   -1.0184 N   0  0  0  0  0  3           0  0  0
   -2.8735   -0.0286   -2.2467 N   0  0  0  0  0  3           0  0  0
   -4.9501    0.0475    1.3655 N   0  0  0  0  0  3           0  0  0
  -10.1814    0.4693    4.3414 N   0  0  0  0  0  3           0  0  0
    3.9770    1.1686   -3.2730 N   0  0  1  0  0  3           0  0  0
   -6.1570   -0.5277    1.5781 C   0  0  0  0  0  4           0  0  0
   -8.2256   -1.3195    2.6072 C   0  0  0  0  0  4           0  0  0
  -11.4036    3.6949    5.6382 C   0  0  0  0  0  4           0  0  0
    0.0000    0.0000    0.0000 C   0  0  0  0  0  4           0  0  0
   -0.6166    0.0000    1.2550 C   0  0  0  0  0  4           0  0  0
   -4.2104   -0.0337   -2.1473 C   0  0  0  0  0  4           0  0  0
   -4.2389    0.0348    0.1470 C   0  0  0  0  0  4           0  0  0
   -2.1847   -0.0091   -1.0980 C   0  0  0  0  0  4           0  0  0
   -8.0477   -1.6451    1.2796 C   0  0  0  0  0  4           0  0  0
  -10.9895    1.6123    4.4920 C   0  0  0  0  0  4           0  0  0
   -2.8197    0.0123    0.1589 C   0  0  0  0  0  4           0  0  0
  -10.6257    2.5530    5.4609 C   0  0  0  0  0  4           0  0  0
  -12.5394    3.9184    4.8670 C   0  0  0  0  0  4           0  0  0
   -0.7927   -0.0125   -1.1550 C   0  0  0  0  0  4           0  0  0
   -2.0142    0.0046    1.3272 C   0  0  0  0  0  4           0  0  0
  -12.1318    1.8320    3.7102 C   0  0  0  0  0  4           0  0  0
  -12.9012    2.9841    3.8992 C   0  0  0  0  0  4           0  0  0
  -10.4013   -0.5522    3.4333 C   0  0  0  0  0  4           0  0  0
    1.9787    0.0000   -1.2901 C   0  0  0  0  0  4           0  0  0
    4.2973    4.7490   -5.6983 C   0  0  0  0  0  4           0  0  0
   -0.4295   -0.0023    3.6076 C   0  0  0  0  0  4           0  0  0
    4.2691    0.0000   -2.4392 C   0  0  0  0  0  4           0  0  0
    4.3204    2.4219   -2.5814 C   0  0  0  0  0  4           0  0  0
    4.6961    1.0654   -4.5527 C   0  0  0  0  0  4           0  0  0
   -9.3572   -1.6429    3.5137 C   0  0  0  0  0  4           0  0  0
    4.6916    3.5804   -4.8017 C   0  0  1  0  0  4           0  0  0
    3.4928    0.0000   -1.1205 C   0  0  0  0  0  4           0  0  0
    3.9902    3.6466   -3.4387 C   0  0  0  0  0  4           0  0  0
    4.3743    2.2427   -5.4751 C   0  0  0  0  0  4           0  0  0
  1 13  1  0     0  0
  1 14  1  0     0  0
  2 15  1  0     0  0
  3 16  1  0     0  0
  3 31  1  0     0  0
  4 17  1  0     0  0
  4 33  1  0     0  0
  5 30  2  0     0  0
  6 32  1  0     0  0
  7 13  2  0     0  0
  7 21  1  0     0  0
  8 18  1  0     0  0
  8 19  2  0     0  0
  9 18  2  0     0  0
  9 20  1  0     0  0
 10 13  1  0     0  0
 10 19  1  0     0  0
 11 22  1  0     0  0
 11 30  1  0     0  0
 12 34  1  0     0  0
 12 35  1  0     0  0
 12 36  1  0     0  0
 14 21  2  0     0  0
 14 37  1  0     0  0
 15 24  2  0     0  0
 15 25  1  0     0  0
 16 17  2  0     0  0
 16 26  1  0     0  0
 17 27  1  0     0  0
 19 23  1  0     0  0
 20 23  1  0     0  0
 20 26  2  0     0  0
 22 24  1  0     0  0
 22 28  2  0     0  0
 23 27  2  0     0  0
 25 29  2  0     0  0
 28 29  1  0     0  0
 30 37  1  0     0  0
 31 39  1  0     0  0
 32 38  1  0     0  0
 34 39  1  0     0  0
 35 40  1  0     0  0
 36 41  1  0     0  0
 38 40  1  0     0  0
 38 41  1  0     0  0
M  END
> <standard_type>
pIC50

> <# Confs.>
25

> <canonical_smiles>
FC1=CC(NC(CC2=CN=C(NC(C3=C4)=NC=NC3=CC(OCCCN5CCC(CO)CC5)=C4OC)S2)=O)=CC=C1

> <standard_relation>
=

> <Publication_ID>
nan

> <predicted_activity_value>
8.013228265733755

> <actual_activity_value>
8.154901959985743

> <Compound>
3

> <standard_units>
nM

> hash
6019588431572444200

$$$$
2
XXILIB    08252103493D 0   0.00000     0.00000

 41 45  0     1  0            999 V2000
   -6.8804   -0.4089    3.1470 S   0  0  0  0  0  2           0  0  0
   -6.3554   -4.1809    9.4833 F   0  0  0  0  0  1           0  0  0
    1.3667    0.0000    0.0000 O   0  0  0  0  0  2           0  0  0
    0.2177   -0.0024    2.3373 O   0  0  0  0  0  2           0  0  0
   -9.4492   -4.0304    3.7381 O   0  0  0  0  0  2           0  0  0
    2.7997    7.6143   -4.8183 O   0  0  0  0  0  2           0  0  0
   -6.8794   -1.1959    0.6986 N   0  0  0  0  0  3           0  0  0
   -4.9314   -0.0106   -1.0184 N   0  0  0  0  0  3           0  0  0
   -2.8735   -0.0286   -2.2467 N   0  0  0  0  0  3           0  0  0
   -4.9501    0.0475    1.3655 N   0  0  0  0  0  3           0  0  0
   -8.4272   -2.7939    5.4206 N   0  0  0  0  0  3           0  0  0
    3.3335    3.0793   -2.3540 N   0  0  1  0  0  3           0  0  0
   -6.1570   -0.5277    1.5781 C   0  0  0  0  0  4           0  0  0
   -8.2256   -1.3195    2.6072 C   0  0  0  0  0  4           0  0  0
   -6.9921   -4.5081    8.3501 C   0  0  0  0  0  4           0  0  0
    0.0000    0.0000    0.0000 C   0  0  0  0  0  4           0  0  0
   -0.6166    0.0000    1.2550 C   0  0  0  0  0  4           0  0  0
   -4.2104   -0.0337   -2.1473 C   0  0  0  0  0  4           0  0  0
   -4.2389    0.0348    0.1470 C   0  0  0  0  0  4           0  0  0
   -2.1847   -0.0091   -1.0980 C   0  0  0  0  0  4           0  0  0
   -8.0477   -1.6451    1.2796 C   0  0  0  0  0  4           0  0  0
   -8.0477   -3.8369    6.2866 C   0  0  0  0  0  4           0  0  0
   -2.8197    0.0123    0.1589 C   0  0  0  0  0  4           0  0  0
   -7.3838   -3.5011    7.4709 C   0  0  0  0  0  4           0  0  0
   -7.2499   -5.8464    8.0718 C   0  0  0  0  0  4           0  0  0
   -0.7927   -0.0125   -1.1550 C   0  0  0  0  0  4           0  0  0
   -2.0142    0.0046    1.3272 C   0  0  0  0  0  4           0  0  0
   -8.3123   -5.1833    6.0008 C   0  0  0  0  0  4           0  0  0
   -7.9142   -6.1823    6.8944 C   0  0  0  0  0  4           0  0  0
   -9.0883   -2.9552    4.2150 C   0  0  0  0  0  4           0  0  0
    1.9787    0.6451   -1.1173 C   0  0  0  0  0  4           0  0  0
    2.1271    7.0146   -3.7187 C   0  0  0  0  0  4           0  0  0
   -0.4295   -0.0023    3.6076 C   0  0  0  0  0  4           0  0  0
    4.0782    1.9476   -1.7966 C   0  0  0  0  0  4           0  0  0
    3.0372    4.0880   -1.3235 C   0  0  0  0  0  4           0  0  0
    4.0868    3.6775   -3.4675 C   0  0  0  0  0  4           0  0  0
   -9.3572   -1.6429    3.5137 C   0  0  0  0  0  4           0  0  0
    2.9597    5.9066   -3.0831 C   0  0  1  0  0  4           0  0  0
    3.3184    1.2254   -0.6818 C   0  0  0  0  0  4           0  0  0
    2.2344    5.2589   -1.8963 C   0  0  0  0  0  4           0  0  0
    3.3163    4.8311   -4.1124 C   0  0  0  0  0  4           0  0  0
  1 13  1  0     0  0
  1 14  1  0     0  0
  2 15  1  0     0  0
  3 16  1  0     0  0
  3 31  1  0     0  0
  4 17  1  0     0  0
  4 33  1  0     0  0
  5 30  2  0     0  0
  6 32  1  0     0  0
  7 13  2  0     0  0
  7 21  1  0     0  0
  8 18  1  0     0  0
  8 19  2  0     0  0
  9 18  2  0     0  0
  9 20  1  0     0  0
 10 13  1  0     0  0
 10 19  1  0     0  0
 11 22  1  0     0  0
 11 30  1  0     0  0
 12 34  1  0     0  0
 12 35  1  0     0  0
 12 36  1  0     0  0
 14 21  2  0     0  0
 14 37  1  0     0  0
 15 24  2  0     0  0
 15 25  1  0     0  0
 16 17  2  0     0  0
 16 26  1  0     0  0
 17 27  1  0     0  0
 19 23  1  0     0  0
 20 23  1  0     0  0
 20 26  2  0     0  0
 22 24  1  0     0  0
 22 28  2  0     0  0
 23 27  2  0     0  0
 25 29  2  0     0  0
 28 29  1  0     0  0
 30 37  1  0     0  0
 31 39  1  0     0  0
 32 38  1  0     0  0
 34 39  1  0     0  0
 35 40  1  0     0  0
 36 41  1  0     0  0
 38 40  1  0     0  0
 38 41  1  0     0  0
M  END
> <standard_type>
pIC50

> <# Confs.>
25

> <canonical_smiles>
FC1=CC(NC(CC2=CN=C(NC(C3=C4)=NC=NC3=CC(OCCCN5CCC(CO)CC5)=C4OC)S2)=O)=CC=C1

> <standard_relation>
=

> <Publication_ID>
nan

> <predicted_activity_value>
8.013228265733755

> <actual_activity_value>
8.154901959985743

> <Compound>
3

> <standard_units>
nM

> hash
6019588431572444200

$$$$
2
XXILIB    08252103493D 0   0.00000     0.00000

 41 45  0     1  0            999 V2000
   -6.8804   -0.4089    3.1470 S   0  0  0  0  0  2           0  0  0
   -8.6283   -4.3157   10.1026 F   0  0  0  0  0  1           0  0  0
    1.3667   -0.0000    0.0000 O   0  0  0  0  0  2           0  0  0
    0.2177   -0.0024    2.3373 O   0  0  0  0  0  2           0  0  0
   -8.9290   -4.0029    3.5900 O   0  0  0  0  0  2           0  0  0
    4.9476    4.6871   -6.9610 O   0  0  0  0  0  2           0  0  0
   -6.8794   -1.1959    0.6986 N   0  0  0  0  0  3           0  0  0
   -4.9314   -0.0106   -1.0184 N   0  0  0  0  0  3           0  0  0
   -2.8735   -0.0286   -2.2467 N   0  0  0  0  0  3           0  0  0
   -4.9501    0.0475    1.3655 N   0  0  0  0  0  3           0  0  0
   -9.0636   -2.8318    5.5936 N   0  0  0  0  0  3           0  0  0
    3.9770    1.1686   -3.2730 N   0  0  1  0  0  3           0  0  0
   -6.1570   -0.5277    1.5781 C   0  0  0  0  0  4           0  0  0
   -8.2256   -1.3195    2.6072 C   0  0  0  0  0  4           0  0  0
   -8.6204   -4.6047    8.7937 C   0  0  0  0  0  4           0  0  0
    0.0000    0.0000    0.0000 C   0  0  0  0  0  4           0  0  0
   -0.6166    0.0000    1.2550 C   0  0  0  0  0  4           0  0  0
   -4.2104   -0.0337   -2.1473 C   0  0  0  0  0  4           0  0  0
   -4.2389    0.0348    0.1470 C   0  0  0  0  0  4           0  0  0
   -2.1847   -0.0091   -1.0980 C   0  0  0  0  0  4           0  0  0
   -8.0477   -1.6451    1.2796 C   0  0  0  0  0  4           0  0  0
   -8.8360   -3.8839    6.5010 C   0  0  0  0  0  4           0  0  0
   -2.8197    0.0123    0.1589 C   0  0  0  0  0  4           0  0  0
   -8.8439   -3.5881    7.8679 C   0  0  0  0  0  4           0  0  0
   -8.3891   -5.9134    8.3832 C   0  0  0  0  0  4           0  0  0
   -0.7927   -0.0125   -1.1550 C   0  0  0  0  0  4           0  0  0
   -2.0142    0.0046    1.3272 C   0  0  0  0  0  4           0  0  0
   -8.6054   -5.2008    6.0804 C   0  0  0  0  0  4           0  0  0
   -8.3844   -6.2104    7.0222 C   0  0  0  0  0  4           0  0  0
   -9.0883   -2.9552    4.2150 C   0  0  0  0  0  4           0  0  0
    1.9787    0.0000   -1.2901 C   0  0  0  0  0  4           0  0  0
    4.2973    4.7490   -5.6983 C   0  0  0  0  0  4           0  0  0
   -0.4295   -0.0023    3.6076 C   0  0  0  0  0  4           0  0  0
    4.2691    0.0000   -2.4392 C   0  0  0  0  0  4           0  0  0
    4.3204    2.4219   -2.5814 C   0  0  0  0  0  4           0  0  0
    4.6961    1.0654   -4.5527 C   0  0  0  0  0  4           0  0  0
   -9.3572   -1.6429    3.5137 C   0  0  0  0  0  4           0  0  0
    4.6916    3.5804   -4.8017 C   0  0  1  0  0  4           0  0  0
    3.4928    0.0000   -1.1205 C   0  0  0  0  0  4           0  0  0
    3.9902    3.6466   -3.4387 C   0  0  0  0  0  4           0  0  0
    4.3743    2.2427   -5.4751 C   0  0  0  0  0  4           0  0  0
  1 13  1  0     0  0
  1 14  1  0     0  0
  2 15  1  0     0  0
  3 16  1  0     0  0
  3 31  1  0     0  0
  4 17  1  0     0  0
  4 33  1  0     0  0
  5 30  2  0     0  0
  6 32  1  0     0  0
  7 13  2  0     0  0
  7 21  1  0     0  0
  8 18  1  0     0  0
  8 19  2  0     0  0
  9 18  2  0     0  0
  9 20  1  0     0  0
 10 13  1  0     0  0
 10 19  1  0     0  0
 11 22  1  0     0  0
 11 30  1  0     0  0
 12 34  1  0     0  0
 12 35  1  0     0  0
 12 36  1  0     0  0
 14 21  2  0     0  0
 14 37  1  0     0  0
 15 24  2  0     0  0
 15 25  1  0     0  0
 16 17  2  0     0  0
 16 26  1  0     0  0
 17 27  1  0     0  0
 19 23  1  0     0  0
 20 23  1  0     0  0
 20 26  2  0     0  0
 22 24  1  0     0  0
 22 28  2  0     0  0
 23 27  2  0     0  0
 25 29  2  0     0  0
 28 29  1  0     0  0
 30 37  1  0     0  0
 31 39  1  0     0  0
 32 38  1  0     0  0
 34 39  1  0     0  0
 35 40  1  0     0  0
 36 41  1  0     0  0
 38 40  1  0     0  0
 38 41  1  0     0  0
M  END
> <standard_type>
pIC50

> <# Confs.>
25

> <canonical_smiles>
FC1=CC(NC(CC2=CN=C(NC(C3=C4)=NC=NC3=CC(OCCCN5CCC(CO)CC5)=C4OC)S2)=O)=CC=C1

> <standard_relation>
=

> <Publication_ID>
nan

> <predicted_activity_value>
8.013228265733755

> <actual_activity_value>
8.154901959985743

> <Compound>
3

> <standard_units>
nM

> hash
6019588431572444200

$$$$
2
XXILIB    08252103493D 0   0.00000     0.00000

 41 45  0     1  0            999 V2000
   -6.8804   -0.4089    3.1470 S   0  0  0  0  0  2           0  0  0
  -12.9800    3.6191    0.3082 F   0  0  0  0  0  1           0  0  0
    1.3667   -0.0000    0.0000 O   0  0  0  0  0  2           0  0  0
    0.2177   -0.0024    2.3373 O   0  0  0  0  0  2           0  0  0
  -11.4858   -2.2989    2.6206 O   0  0  0  0  0  2           0  0  0
    4.6375    5.9995   -5.1139 O   0  0  0  0  0  2           0  0  0
   -6.8794   -1.1959    0.6986 N   0  0  0  0  0  3           0  0  0
   -4.9314   -0.0106   -1.0184 N   0  0  0  0  0  3           0  0  0
   -2.8735   -0.0286   -2.2467 N   0  0  0  0  0  3           0  0  0
   -4.9501    0.0475    1.3655 N   0  0  0  0  0  3           0  0  0
  -10.8108   -0.0878    2.3760 N   0  0  0  0  0  3           0  0  0
    3.9770    1.1686   -3.2730 N   0  0  1  0  0  3           0  0  0
   -6.1570   -0.5277    1.5781 C   0  0  0  0  0  4           0  0  0
   -8.2256   -1.3195    2.6072 C   0  0  0  0  0  4           0  0  0
  -12.9979    2.3225    0.6475 C   0  0  0  0  0  4           0  0  0
    0.0000    0.0000    0.0000 C   0  0  0  0  0  4           0  0  0
   -0.6166    0.0000    1.2550 C   0  0  0  0  0  4           0  0  0
   -4.2104   -0.0337   -2.1473 C   0  0  0  0  0  4           0  0  0
   -4.2389    0.0348    0.1470 C   0  0  0  0  0  4           0  0  0
   -2.1847   -0.0091   -1.0980 C   0  0  0  0  0  4           0  0  0
   -8.0477   -1.6451    1.2796 C   0  0  0  0  0  4           0  0  0
  -11.9249    0.4271    1.6862 C   0  0  0  0  0  4           0  0  0
   -2.8197    0.0123    0.1589 C   0  0  0  0  0  4           0  0  0
  -11.9112    1.7792    1.3291 C   0  0  0  0  0  4           0  0  0
  -14.1003    1.5427    0.3135 C   0  0  0  0  0  4           0  0  0
   -0.7927   -0.0125   -1.1550 C   0  0  0  0  0  4           0  0  0
   -2.0142    0.0046    1.3272 C   0  0  0  0  0  4           0  0  0
  -13.0317   -0.3648    1.3513 C   0  0  0  0  0  4           0  0  0
  -14.1139    0.1949    0.6654 C   0  0  0  0  0  4           0  0  0
  -10.6672   -1.3979    2.7995 C   0  0  0  0  0  4           0  0  0
    1.9787    0.0000   -1.2901 C   0  0  0  0  0  4           0  0  0
    4.2973    4.7490   -5.6983 C   0  0  0  0  0  4           0  0  0
   -0.4295   -0.0023    3.6076 C   0  0  0  0  0  4           0  0  0
    4.2691    0.0000   -2.4392 C   0  0  0  0  0  4           0  0  0
    4.3204    2.4219   -2.5814 C   0  0  0  0  0  4           0  0  0
    4.6961    1.0654   -4.5527 C   0  0  0  0  0  4           0  0  0
   -9.3572   -1.6429    3.5137 C   0  0  0  0  0  4           0  0  0
    4.6916    3.5804   -4.8017 C   0  0  1  0  0  4           0  0  0
    3.4928    0.0000   -1.1205 C   0  0  0  0  0  4           0  0  0
    3.9902    3.6466   -3.4387 C   0  0  0  0  0  4           0  0  0
    4.3743    2.2427   -5.4751 C   0  0  0  0  0  4           0  0  0
  1 13  1  0     0  0
  1 14  1  0     0  0
  2 15  1  0     0  0
  3 16  1  0     0  0
  3 31  1  0     0  0
  4 17  1  0     0  0
  4 33  1  0     0  0
  5 30  2  0     0  0
  6 32  1  0     0  0
  7 13  2  0     0  0
  7 21  1  0     0  0
  8 18  1  0     0  0
  8 19  2  0     0  0
  9 18  2  0     0  0
  9 20  1  0     0  0
 10 13  1  0     0  0
 10 19  1  0     0  0
 11 22  1  0     0  0
 11 30  1  0     0  0
 12 34  1  0     0  0
 12 35  1  0     0  0
 12 36  1  0     0  0
 14 21  2  0     0  0
 14 37  1  0     0  0
 15 24  2  0     0  0
 15 25  1  0     0  0
 16 17  2  0     0  0
 16 26  1  0     0  0
 17 27  1  0     0  0
 19 23  1  0     0  0
 20 23  1  0     0  0
 20 26  2  0     0  0
 22 24  1  0     0  0
 22 28  2  0     0  0
 23 27  2  0     0  0
 25 29  2  0     0  0
 28 29  1  0     0  0
 30 37  1  0     0  0
 31 39  1  0     0  0
 32 38  1  0     0  0
 34 39  1  0     0  0
 35 40  1  0     0  0
 36 41  1  0     0  0
 38 40  1  0     0  0
 38 41  1  0     0  0
M  END
> <standard_type>
pIC50

> <# Confs.>
25

> <canonical_smiles>
FC1=CC(NC(CC2=CN=C(NC(C3=C4)=NC=NC3=CC(OCCCN5CCC(CO)CC5)=C4OC)S2)=O)=CC=C1

> <standard_relation>
=

> <Publication_ID>
nan

> <predicted_activity_value>
8.013228265733755

> <actual_activity_value>
8.154901959985743

> <Compound>
3

> <standard_units>
nM

> hash
6019588431572444200

$$$$
2
XXILIB    08252103493D 0   0.00000     0.00000

 41 45  0     1  0            999 V2000
   -6.8804   -0.4089    3.1470 S   0  0  0  0  0  2           0  0  0
   -6.3554   -4.1809    9.4833 F   0  0  0  0  0  1           0  0  0
    1.3667   -0.0000   -0.0000 O   0  0  0  0  0  2           0  0  0
    0.2177   -0.0024    2.3373 O   0  0  0  0  0  2           0  0  0
   -9.4492   -4.0304    3.7381 O   0  0  0  0  0  2           0  0  0
    7.0345    0.4208   -7.1377 O   0  0  0  0  0  2           0  0  0
   -6.8794   -1.1959    0.6986 N   0  0  0  0  0  3           0  0  0
   -4.9314   -0.0106   -1.0184 N   0  0  0  0  0  3           0  0  0
   -2.8735   -0.0286   -2.2467 N   0  0  0  0  0  3           0  0  0
   -4.9501    0.0475    1.3655 N   0  0  0  0  0  3           0  0  0
   -8.4272   -2.7939    5.4206 N   0  0  0  0  0  3           0  0  0
    4.3893   -1.0761   -2.9323 N   0  0  1  0  0  3           0  0  0
   -6.1570   -0.5277    1.5781 C   0  0  0  0  0  4           0  0  0
   -8.2256   -1.3195    2.6072 C   0  0  0  0  0  4           0  0  0
   -6.9921   -4.5081    8.3501 C   0  0  0  0  0  4           0  0  0
    0.0000    0.0000    0.0000 C   0  0  0  0  0  4           0  0  0
   -0.6166    0.0000    1.2550 C   0  0  0  0  0  4           0  0  0
   -4.2104   -0.0337   -2.1473 C   0  0  0  0  0  4           0  0  0
   -4.2389    0.0348    0.1470 C   0  0  0  0  0  4           0  0  0
   -2.1847   -0.0091   -1.0980 C   0  0  0  0  0  4           0  0  0
   -8.0477   -1.6451    1.2796 C   0  0  0  0  0  4           0  0  0
   -8.0477   -3.8369    6.2866 C   0  0  0  0  0  4           0  0  0
   -2.8197    0.0123    0.1589 C   0  0  0  0  0  4           0  0  0
   -7.3838   -3.5011    7.4709 C   0  0  0  0  0  4           0  0  0
   -7.2499   -5.8464    8.0718 C   0  0  0  0  0  4           0  0  0
   -0.7927   -0.0125   -1.1550 C   0  0  0  0  0  4           0  0  0
   -2.0142    0.0046    1.3272 C   0  0  0  0  0  4           0  0  0
   -8.3123   -5.1833    6.0008 C   0  0  0  0  0  4           0  0  0
   -7.9142   -6.1823    6.8944 C   0  0  0  0  0  4           0  0  0
   -9.0883   -2.9552    4.2150 C   0  0  0  0  0  4           0  0  0
    1.9787   -0.6451   -1.1173 C   0  0  0  0  0  4           0  0  0
    6.4178    1.1266   -6.0687 C   0  0  0  0  0  4           0  0  0
   -0.4295   -0.0023    3.6076 C   0  0  0  0  0  4           0  0  0
    4.0782   -1.9476   -1.7966 C   0  0  0  0  0  4           0  0  0
    5.2254    0.0639   -2.5219 C   0  0  0  0  0  4           0  0  0
    5.0495   -1.8510   -3.9948 C   0  0  0  0  0  4           0  0  0
   -9.3572   -1.6429    3.5137 C   0  0  0  0  0  4           0  0  0
    6.1946    0.2313   -4.8548 C   0  0  1  0  0  4           0  0  0
    3.3184   -1.2254   -0.6818 C   0  0  0  0  0  4           0  0  0
    5.5290    0.9924   -3.7008 C   0  0  0  0  0  4           0  0  0
    5.3426   -0.9864   -5.2222 C   0  0  0  0  0  4           0  0  0
  1 13  1  0     0  0
  1 14  1  0     0  0
  2 15  1  0     0  0
  3 16  1  0     0  0
  3 31  1  0     0  0
  4 17  1  0     0  0
  4 33  1  0     0  0
  5 30  2  0     0  0
  6 32  1  0     0  0
  7 13  2  0     0  0
  7 21  1  0     0  0
  8 18  1  0     0  0
  8 19  2  0     0  0
  9 18  2  0     0  0
  9 20  1  0     0  0
 10 13  1  0     0  0
 10 19  1  0     0  0
 11 22  1  0     0  0
 11 30  1  0     0  0
 12 34  1  0     0  0
 12 35  1  0     0  0
 12 36  1  0     0  0
 14 21  2  0     0  0
 14 37  1  0     0  0
 15 24  2  0     0  0
 15 25  1  0     0  0
 16 17  2  0     0  0
 16 26  1  0     0  0
 17 27  1  0     0  0
 19 23  1  0     0  0
 20 23  1  0     0  0
 20 26  2  0     0  0
 22 24  1  0     0  0
 22 28  2  0     0  0
 23 27  2  0     0  0
 25 29  2  0     0  0
 28 29  1  0     0  0
 30 37  1  0     0  0
 31 39  1  0     0  0
 32 38  1  0     0  0
 34 39  1  0     0  0
 35 40  1  0     0  0
 36 41  1  0     0  0
 38 40  1  0     0  0
 38 41  1  0     0  0
M  END
> <standard_type>
pIC50

> <# Confs.>
25

> <canonical_smiles>
FC1=CC(NC(CC2=CN=C(NC(C3=C4)=NC=NC3=CC(OCCCN5CCC(CO)CC5)=C4OC)S2)=O)=CC=C1

> <standard_relation>
=

> <Publication_ID>
nan

> <predicted_activity_value>
8.013228265733755

> <actual_activity_value>
8.154901959985743

> <Compound>
3

> <standard_units>
nM

> hash
6019588431572444200

$$$$
2
XXILIB    08252103493D 0   0.00000     0.00000

 41 45  0     1  0            999 V2000
   -6.8804   -0.4089    3.1470 S   0  0  0  0  0  2           0  0  0
  -10.4007   -8.6612    2.6514 F   0  0  0  0  0  1           0  0  0
    1.3667   -0.0000    0.0000 O   0  0  0  0  0  2           0  0  0
    0.2177   -0.0024    2.3373 O   0  0  0  0  0  2           0  0  0
   -8.4969   -3.0043    5.2929 O   0  0  0  0  0  2           0  0  0
    4.9476    4.6871   -6.9610 O   0  0  0  0  0  2           0  0  0
   -6.8794   -1.1959    0.6986 N   0  0  0  0  0  3           0  0  0
   -4.9314   -0.0106   -1.0184 N   0  0  0  0  0  3           0  0  0
   -2.8735   -0.0286   -2.2467 N   0  0  0  0  0  3           0  0  0
   -4.9501    0.0475    1.3655 N   0  0  0  0  0  3           0  0  0
   -9.5584   -4.0482    3.5074 N   0  0  0  0  0  3           0  0  0
    3.9770    1.1686   -3.2730 N   0  0  1  0  0  3           0  0  0
   -6.1570   -0.5277    1.5781 C   0  0  0  0  0  4           0  0  0
   -8.2256   -1.3195    2.6072 C   0  0  0  0  0  4           0  0  0
   -9.8903   -7.7179    3.4555 C   0  0  0  0  0  4           0  0  0
    0.0000    0.0000    0.0000 C   0  0  0  0  0  4           0  0  0
   -0.6166    0.0000    1.2550 C   0  0  0  0  0  4           0  0  0
   -4.2104   -0.0337   -2.1473 C   0  0  0  0  0  4           0  0  0
   -4.2389    0.0348    0.1470 C   0  0  0  0  0  4           0  0  0
   -2.1847   -0.0091   -1.0980 C   0  0  0  0  0  4           0  0  0
   -8.0477   -1.6451    1.2796 C   0  0  0  0  0  4           0  0  0
   -9.4490   -5.3908    3.9165 C   0  0  0  0  0  4           0  0  0
   -2.8197    0.0123    0.1589 C   0  0  0  0  0  4           0  0  0
   -9.9792   -6.3791    3.0809 C   0  0  0  0  0  4           0  0  0
   -9.2815   -8.0921    4.6489 C   0  0  0  0  0  4           0  0  0
   -0.7927   -0.0125   -1.1550 C   0  0  0  0  0  4           0  0  0
   -2.0142    0.0046    1.3272 C   0  0  0  0  0  4           0  0  0
   -8.8327   -5.7609    5.1196 C   0  0  0  0  0  4           0  0  0
   -8.7498   -7.1091    5.4806 C   0  0  0  0  0  4           0  0  0
   -9.0883   -2.9552    4.2150 C   0  0  0  0  0  4           0  0  0
    1.9787    0.0000   -1.2901 C   0  0  0  0  0  4           0  0  0
    4.2973    4.7490   -5.6983 C   0  0  0  0  0  4           0  0  0
   -0.4295   -0.0023    3.6076 C   0  0  0  0  0  4           0  0  0
    4.2691    0.0000   -2.4392 C   0  0  0  0  0  4           0  0  0
    4.3204    2.4219   -2.5814 C   0  0  0  0  0  4           0  0  0
    4.6961    1.0654   -4.5527 C   0  0  0  0  0  4           0  0  0
   -9.3572   -1.6429    3.5137 C   0  0  0  0  0  4           0  0  0
    4.6916    3.5804   -4.8017 C   0  0  1  0  0  4           0  0  0
    3.4928    0.0000   -1.1205 C   0  0  0  0  0  4           0  0  0
    3.9902    3.6466   -3.4387 C   0  0  0  0  0  4           0  0  0
    4.3743    2.2427   -5.4751 C   0  0  0  0  0  4           0  0  0
  1 13  1  0     0  0
  1 14  1  0     0  0
  2 15  1  0     0  0
  3 16  1  0     0  0
  3 31  1  0     0  0
  4 17  1  0     0  0
  4 33  1  0     0  0
  5 30  2  0     0  0
  6 32  1  0     0  0
  7 13  2  0     0  0
  7 21  1  0     0  0
  8 18  1  0     0  0
  8 19  2  0     0  0
  9 18  2  0     0  0
  9 20  1  0     0  0
 10 13  1  0     0  0
 10 19  1  0     0  0
 11 22  1  0     0  0
 11 30  1  0     0  0
 12 34  1  0     0  0
 12 35  1  0     0  0
 12 36  1  0     0  0
 14 21  2  0     0  0
 14 37  1  0     0  0
 15 24  2  0     0  0
 15 25  1  0     0  0
 16 17  2  0     0  0
 16 26  1  0     0  0
 17 27  1  0     0  0
 19 23  1  0     0  0
 20 23  1  0     0  0
 20 26  2  0     0  0
 22 24  1  0     0  0
 22 28  2  0     0  0
 23 27  2  0     0  0
 25 29  2  0     0  0
 28 29  1  0     0  0
 30 37  1  0     0  0
 31 39  1  0     0  0
 32 38  1  0     0  0
 34 39  1  0     0  0
 35 40  1  0     0  0
 36 41  1  0     0  0
 38 40  1  0     0  0
 38 41  1  0     0  0
M  END
> <standard_type>
pIC50

> <# Confs.>
25

> <canonical_smiles>
FC1=CC(NC(CC2=CN=C(NC(C3=C4)=NC=NC3=CC(OCCCN5CCC(CO)CC5)=C4OC)S2)=O)=CC=C1

> <standard_relation>
=

> <Publication_ID>
nan

> <predicted_activity_value>
8.013228265733755

> <actual_activity_value>
8.154901959985743

> <Compound>
3

> <standard_units>
nM

> hash
6019588431572444200

$$$$
2
XXILIB    08252103493D 0   0.00000     0.00000

 41 45  0     1  0            999 V2000
   -6.8804   -0.4089    3.1470 S   0  0  0  0  0  2           0  0  0
   -6.5692   -8.1819    4.2596 F   0  0  0  0  0  1           0  0  0
    1.3667   -0.0000    0.0000 O   0  0  0  0  0  2           0  0  0
    0.2177   -0.0024    2.3373 O   0  0  0  0  0  2           0  0  0
  -10.8651   -3.4348    2.9901 O   0  0  0  0  0  2           0  0  0
    4.6375    5.9995   -5.1139 O   0  0  0  0  0  2           0  0  0
   -6.8794   -1.1959    0.6986 N   0  0  0  0  0  3           0  0  0
   -4.9314   -0.0106   -1.0184 N   0  0  0  0  0  3           0  0  0
   -2.8735   -0.0286   -2.2467 N   0  0  0  0  0  3           0  0  0
   -4.9501    0.0475    1.3655 N   0  0  0  0  0  3           0  0  0
   -8.7051   -3.9616    3.6690 N   0  0  0  0  0  3           0  0  0
    3.9770    1.1686   -3.2730 N   0  0  1  0  0  3           0  0  0
   -6.1570   -0.5277    1.5781 C   0  0  0  0  0  4           0  0  0
   -8.2256   -1.3195    2.6072 C   0  0  0  0  0  4           0  0  0
   -7.6642   -7.4878    3.9193 C   0  0  0  0  0  4           0  0  0
    0.0000    0.0000    0.0000 C   0  0  0  0  0  4           0  0  0
   -0.6166    0.0000    1.2550 C   0  0  0  0  0  4           0  0  0
   -4.2104   -0.0337   -2.1473 C   0  0  0  0  0  4           0  0  0
   -4.2389    0.0348    0.1470 C   0  0  0  0  0  4           0  0  0
   -2.1847   -0.0091   -1.0980 C   0  0  0  0  0  4           0  0  0
   -8.0477   -1.6451    1.2796 C   0  0  0  0  0  4           0  0  0
   -8.7727   -5.3667    3.6117 C   0  0  0  0  0  4           0  0  0
   -2.8197    0.0123    0.1589 C   0  0  0  0  0  4           0  0  0
   -7.6332   -6.0959    3.9664 C   0  0  0  0  0  4           0  0  0
   -8.8112   -8.1689    3.5252 C   0  0  0  0  0  4           0  0  0
   -0.7927   -0.0125   -1.1550 C   0  0  0  0  0  4           0  0  0
   -2.0142    0.0046    1.3272 C   0  0  0  0  0  4           0  0  0
   -9.9324   -6.0465    3.2153 C   0  0  0  0  0  4           0  0  0
   -9.9481   -7.4441    3.1749 C   0  0  0  0  0  4           0  0  0
   -9.7388   -3.0971    3.3523 C   0  0  0  0  0  4           0  0  0
    1.9787    0.0000   -1.2901 C   0  0  0  0  0  4           0  0  0
    4.2973    4.7490   -5.6983 C   0  0  0  0  0  4           0  0  0
   -0.4295   -0.0023    3.6076 C   0  0  0  0  0  4           0  0  0
    4.2691    0.0000   -2.4392 C   0  0  0  0  0  4           0  0  0
    4.3204    2.4219   -2.5814 C   0  0  0  0  0  4           0  0  0
    4.6961    1.0654   -4.5527 C   0  0  0  0  0  4           0  0  0
   -9.3572   -1.6429    3.5137 C   0  0  0  0  0  4           0  0  0
    4.6916    3.5804   -4.8017 C   0  0  1  0  0  4           0  0  0
    3.4928    0.0000   -1.1205 C   0  0  0  0  0  4           0  0  0
    3.9902    3.6466   -3.4387 C   0  0  0  0  0  4           0  0  0
    4.3743    2.2427   -5.4751 C   0  0  0  0  0  4           0  0  0
  1 13  1  0     0  0
  1 14  1  0     0  0
  2 15  1  0     0  0
  3 16  1  0     0  0
  3 31  1  0     0  0
  4 17  1  0     0  0
  4 33  1  0     0  0
  5 30  2  0     0  0
  6 32  1  0     0  0
  7 13  2  0     0  0
  7 21  1  0     0  0
  8 18  1  0     0  0
  8 19  2  0     0  0
  9 18  2  0     0  0
  9 20  1  0     0  0
 10 13  1  0     0  0
 10 19  1  0     0  0
 11 22  1  0     0  0
 11 30  1  0     0  0
 12 34  1  0     0  0
 12 35  1  0     0  0
 12 36  1  0     0  0
 14 21  2  0     0  0
 14 37  1  0     0  0
 15 24  2  0     0  0
 15 25  1  0     0  0
 16 17  2  0     0  0
 16 26  1  0     0  0
 17 27  1  0     0  0
 19 23  1  0     0  0
 20 23  1  0     0  0
 20 26  2  0     0  0
 22 24  1  0     0  0
 22 28  2  0     0  0
 23 27  2  0     0  0
 25 29  2  0     0  0
 28 29  1  0     0  0
 30 37  1  0     0  0
 31 39  1  0     0  0
 32 38  1  0     0  0
 34 39  1  0     0  0
 35 40  1  0     0  0
 36 41  1  0     0  0
 38 40  1  0     0  0
 38 41  1  0     0  0
M  END
> <standard_type>
pIC50

> <# Confs.>
25

> <canonical_smiles>
FC1=CC(NC(CC2=CN=C(NC(C3=C4)=NC=NC3=CC(OCCCN5CCC(CO)CC5)=C4OC)S2)=O)=CC=C1

> <standard_relation>
=

> <Publication_ID>
nan

> <predicted_activity_value>
8.013228265733755

> <actual_activity_value>
8.154901959985743

> <Compound>
3

> <standard_units>
nM

> hash
6019588431572444200

$$$$
2
XXILIB    08252103493D 0   0.00000     0.00000

 41 45  0     1  0            999 V2000
   -6.8804   -0.4089    3.1470 S   0  0  0  0  0  2           0  0  0
   -6.3554   -4.1809    9.4833 F   0  0  0  0  0  1           0  0  0
    1.3667   -0.0000    0.0000 O   0  0  0  0  0  2           0  0  0
    0.2177   -0.0024    2.3373 O   0  0  0  0  0  2           0  0  0
   -9.4492   -4.0304    3.7381 O   0  0  0  0  0  2           0  0  0
   10.0268   -2.3939    2.0055 O   0  0  0  0  0  2           0  0  0
   -6.8794   -1.1959    0.6986 N   0  0  0  0  0  3           0  0  0
   -4.9314   -0.0106   -1.0184 N   0  0  0  0  0  3           0  0  0
   -2.8735   -0.0286   -2.2467 N   0  0  0  0  0  3           0  0  0
   -4.9501    0.0475    1.3655 N   0  0  0  0  0  3           0  0  0
   -8.4272   -2.7939    5.4206 N   0  0  0  0  0  3           0  0  0
    5.4929   -1.1838   -0.2086 N   0  0  1  0  0  3           0  0  0
   -6.1570   -0.5277    1.5781 C   0  0  0  0  0  4           0  0  0
   -8.2256   -1.3195    2.6072 C   0  0  0  0  0  4           0  0  0
   -6.9921   -4.5081    8.3501 C   0  0  0  0  0  4           0  0  0
    0.0000    0.0000    0.0000 C   0  0  0  0  0  4           0  0  0
   -0.6166    0.0000    1.2550 C   0  0  0  0  0  4           0  0  0
   -4.2104   -0.0337   -2.1473 C   0  0  0  0  0  4           0  0  0
   -4.2389    0.0348    0.1470 C   0  0  0  0  0  4           0  0  0
   -2.1847   -0.0091   -1.0980 C   0  0  0  0  0  4           0  0  0
   -8.0477   -1.6451    1.2796 C   0  0  0  0  0  4           0  0  0
   -8.0477   -3.8369    6.2866 C   0  0  0  0  0  4           0  0  0
   -2.8197    0.0123    0.1589 C   0  0  0  0  0  4           0  0  0
   -7.3838   -3.5011    7.4709 C   0  0  0  0  0  4           0  0  0
   -7.2499   -5.8464    8.0718 C   0  0  0  0  0  4           0  0  0
   -0.7927   -0.0125   -1.1550 C   0  0  0  0  0  4           0  0  0
   -2.0142    0.0046    1.3272 C   0  0  0  0  0  4           0  0  0
   -8.3123   -5.1833    6.0008 C   0  0  0  0  0  4           0  0  0
   -7.9142   -6.1823    6.8944 C   0  0  0  0  0  4           0  0  0
   -9.0883   -2.9552    4.2150 C   0  0  0  0  0  4           0  0  0
    1.9787    0.0000   -1.2901 C   0  0  0  0  0  4           0  0  0
    9.5265   -1.2179    1.3829 C   0  0  0  0  0  4           0  0  0
   -0.4295   -0.0023    3.6076 C   0  0  0  0  0  4           0  0  0
    4.0357   -1.2098   -0.3568 C   0  0  0  0  0  4           0  0  0
    5.9375    0.0125    0.5252 C   0  0  0  0  0  4           0  0  0
    5.9518   -2.4090    0.4649 C   0  0  0  0  0  4           0  0  0
   -9.3572   -1.6429    3.5137 C   0  0  0  0  0  4           0  0  0
    8.0027   -1.2115    1.3291 C   0  0  1  0  0  4           0  0  0
    3.4928   -0.0000   -1.1205 C   0  0  0  0  0  4           0  0  0
    7.4621    0.0575    0.6573 C   0  0  0  0  0  4           0  0  0
    7.4761   -2.4445    0.5905 C   0  0  0  0  0  4           0  0  0
  1 13  1  0     0  0
  1 14  1  0     0  0
  2 15  1  0     0  0
  3 16  1  0     0  0
  3 31  1  0     0  0
  4 17  1  0     0  0
  4 33  1  0     0  0
  5 30  2  0     0  0
  6 32  1  0     0  0
  7 13  2  0     0  0
  7 21  1  0     0  0
  8 18  1  0     0  0
  8 19  2  0     0  0
  9 18  2  0     0  0
  9 20  1  0     0  0
 10 13  1  0     0  0
 10 19  1  0     0  0
 11 22  1  0     0  0
 11 30  1  0     0  0
 12 34  1  0     0  0
 12 35  1  0     0  0
 12 36  1  0     0  0
 14 21  2  0     0  0
 14 37  1  0     0  0
 15 24  2  0     0  0
 15 25  1  0     0  0
 16 17  2  0     0  0
 16 26  1  0     0  0
 17 27  1  0     0  0
 19 23  1  0     0  0
 20 23  1  0     0  0
 20 26  2  0     0  0
 22 24  1  0     0  0
 22 28  2  0     0  0
 23 27  2  0     0  0
 25 29  2  0     0  0
 28 29  1  0     0  0
 30 37  1  0     0  0
 31 39  1  0     0  0
 32 38  1  0     0  0
 34 39  1  0     0  0
 35 40  1  0     0  0
 36 41  1  0     0  0
 38 40  1  0     0  0
 38 41  1  0     0  0
M  END
> <standard_type>
pIC50

> <# Confs.>
25

> <canonical_smiles>
FC1=CC(NC(CC2=CN=C(NC(C3=C4)=NC=NC3=CC(OCCCN5CCC(CO)CC5)=C4OC)S2)=O)=CC=C1

> <standard_relation>
=

> <Publication_ID>
nan

> <predicted_activity_value>
8.013228265733755

> <actual_activity_value>
8.154901959985743

> <Compound>
3

> <standard_units>
nM

> hash
6019588431572444200

$$$$
2
XXILIB    08252103493D 0   0.00000     0.00000

 41 45  0     1  0            999 V2000
   -6.8804   -0.4089    3.1470 S   0  0  0  0  0  2           0  0  0
   -6.3554   -4.1809    9.4833 F   0  0  0  0  0  1           0  0  0
    1.3667    0.0000    0.0000 O   0  0  0  0  0  2           0  0  0
    0.2177   -0.0024    2.3373 O   0  0  0  0  0  2           0  0  0
   -9.4492   -4.0304    3.7381 O   0  0  0  0  0  2           0  0  0
    4.9476    0.5787   -8.3719 O   0  0  0  0  0  2           0  0  0
   -6.8794   -1.1959    0.6986 N   0  0  0  0  0  3           0  0  0
   -4.9314   -0.0106   -1.0184 N   0  0  0  0  0  3           0  0  0
   -2.8735   -0.0286   -2.2467 N   0  0  0  0  0  3           0  0  0
   -4.9501    0.0475    1.3655 N   0  0  0  0  0  3           0  0  0
   -8.4272   -2.7939    5.4206 N   0  0  0  0  0  3           0  0  0
    3.9770   -0.6245   -3.4188 N   0  0  1  0  0  3           0  0  0
   -6.1570   -0.5277    1.5781 C   0  0  0  0  0  4           0  0  0
   -8.2256   -1.3195    2.6072 C   0  0  0  0  0  4           0  0  0
   -6.9921   -4.5081    8.3501 C   0  0  0  0  0  4           0  0  0
    0.0000    0.0000    0.0000 C   0  0  0  0  0  4           0  0  0
   -0.6166    0.0000    1.2550 C   0  0  0  0  0  4           0  0  0
   -4.2104   -0.0337   -2.1473 C   0  0  0  0  0  4           0  0  0
   -4.2389    0.0348    0.1470 C   0  0  0  0  0  4           0  0  0
   -2.1847   -0.0091   -1.0980 C   0  0  0  0  0  4           0  0  0
   -8.0477   -1.6451    1.2796 C   0  0  0  0  0  4           0  0  0
   -8.0477   -3.8369    6.2866 C   0  0  0  0  0  4           0  0  0
   -2.8197    0.0123    0.1589 C   0  0  0  0  0  4           0  0  0
   -7.3838   -3.5011    7.4709 C   0  0  0  0  0  4           0  0  0
   -7.2499   -5.8464    8.0718 C   0  0  0  0  0  4           0  0  0
   -0.7927   -0.0125   -1.1550 C   0  0  0  0  0  4           0  0  0
   -2.0142    0.0046    1.3272 C   0  0  0  0  0  4           0  0  0
   -8.3123   -5.1833    6.0008 C   0  0  0  0  0  4           0  0  0
   -7.9142   -6.1823    6.8944 C   0  0  0  0  0  4           0  0  0
   -9.0883   -2.9552    4.2150 C   0  0  0  0  0  4           0  0  0
    1.9787   -0.6451   -1.1173 C   0  0  0  0  0  4           0  0  0
    4.2973    1.2636   -7.3093 C   0  0  0  0  0  4           0  0  0
   -0.4295   -0.0023    3.6076 C   0  0  0  0  0  4           0  0  0
    4.2691   -1.2196   -2.1124 C   0  0  0  0  0  4           0  0  0
    4.3204    0.8067   -3.4465 C   0  0  0  0  0  4           0  0  0
    4.6961   -1.3537   -4.4755 C   0  0  0  0  0  4           0  0  0
   -9.3572   -1.6429    3.5137 C   0  0  0  0  0  4           0  0  0
    4.6916    0.6999   -5.9486 C   0  0  1  0  0  4           0  0  0
    3.4928   -0.5602   -0.9704 C   0  0  0  0  0  4           0  0  0
    3.9902    1.4386   -4.8013 C   0  0  0  0  0  4           0  0  0
    4.3743   -0.7953   -5.8629 C   0  0  0  0  0  4           0  0  0
  1 13  1  0     0  0
  1 14  1  0     0  0
  2 15  1  0     0  0
  3 16  1  0     0  0
  3 31  1  0     0  0
  4 17  1  0     0  0
  4 33  1  0     0  0
  5 30  2  0     0  0
  6 32  1  0     0  0
  7 13  2  0     0  0
  7 21  1  0     0  0
  8 18  1  0     0  0
  8 19  2  0     0  0
  9 18  2  0     0  0
  9 20  1  0     0  0
 10 13  1  0     0  0
 10 19  1  0     0  0
 11 22  1  0     0  0
 11 30  1  0     0  0
 12 34  1  0     0  0
 12 35  1  0     0  0
 12 36  1  0     0  0
 14 21  2  0     0  0
 14 37  1  0     0  0
 15 24  2  0     0  0
 15 25  1  0     0  0
 16 17  2  0     0  0
 16 26  1  0     0  0
 17 27  1  0     0  0
 19 23  1  0     0  0
 20 23  1  0     0  0
 20 26  2  0     0  0
 22 24  1  0     0  0
 22 28  2  0     0  0
 23 27  2  0     0  0
 25 29  2  0     0  0
 28 29  1  0     0  0
 30 37  1  0     0  0
 31 39  1  0     0  0
 32 38  1  0     0  0
 34 39  1  0     0  0
 35 40  1  0     0  0
 36 41  1  0     0  0
 38 40  1  0     0  0
 38 41  1  0     0  0
M  END
> <standard_type>
pIC50

> <# Confs.>
25

> <canonical_smiles>
FC1=CC(NC(CC2=CN=C(NC(C3=C4)=NC=NC3=CC(OCCCN5CCC(CO)CC5)=C4OC)S2)=O)=CC=C1

> <standard_relation>
=

> <Publication_ID>
nan

> <predicted_activity_value>
8.013228265733755

> <actual_activity_value>
8.154901959985743

> <Compound>
3

> <standard_units>
nM

> hash
6019588431572444200

$$$$
2
XXILIB    08252103493D 0   0.00000     0.00000

 41 45  0     1  0            999 V2000
   -6.8804   -0.4089    3.1470 S   0  0  0  0  0  2           0  0  0
  -15.2667    0.0641   -0.1267 F   0  0  0  0  0  1           0  0  0
    1.3667   -0.0000    0.0000 O   0  0  0  0  0  2           0  0  0
    0.2177   -0.0024    2.3373 O   0  0  0  0  0  2           0  0  0
  -10.3724    0.4282    4.1763 O   0  0  0  0  0  2           0  0  0
    4.9476    4.6871   -6.9610 O   0  0  0  0  0  2           0  0  0
   -6.8794   -1.1959    0.6986 N   0  0  0  0  0  3           0  0  0
   -4.9314   -0.0106   -1.0184 N   0  0  0  0  0  3           0  0  0
   -2.8735   -0.0286   -2.2467 N   0  0  0  0  0  3           0  0  0
   -4.9501    0.0475    1.3655 N   0  0  0  0  0  3           0  0  0
  -11.3624   -0.7992    2.4681 N   0  0  0  0  0  3           0  0  0
    3.9770    1.1686   -3.2730 N   0  0  1  0  0  3           0  0  0
   -6.1570   -0.5277    1.5781 C   0  0  0  0  0  4           0  0  0
   -8.2256   -1.3195    2.6072 C   0  0  0  0  0  4           0  0  0
  -14.4239    0.4502    0.8414 C   0  0  0  0  0  4           0  0  0
    0.0000    0.0000    0.0000 C   0  0  0  0  0  4           0  0  0
   -0.6166    0.0000    1.2550 C   0  0  0  0  0  4           0  0  0
   -4.2104   -0.0337   -2.1473 C   0  0  0  0  0  4           0  0  0
   -4.2389    0.0348    0.1470 C   0  0  0  0  0  4           0  0  0
   -2.1847   -0.0091   -1.0980 C   0  0  0  0  0  4           0  0  0
   -8.0477   -1.6451    1.2796 C   0  0  0  0  0  4           0  0  0
  -12.4525    0.0407    2.1713 C   0  0  0  0  0  4           0  0  0
   -2.8197    0.0123    0.1589 C   0  0  0  0  0  4           0  0  0
  -13.3354   -0.3577    1.1625 C   0  0  0  0  0  4           0  0  0
  -14.6505    1.6500    1.5077 C   0  0  0  0  0  4           0  0  0
   -0.7927   -0.0125   -1.1550 C   0  0  0  0  0  4           0  0  0
   -2.0142    0.0046    1.3272 C   0  0  0  0  0  4           0  0  0
  -12.6759    1.2476    2.8480 C   0  0  0  0  0  4           0  0  0
  -13.7740    2.0466    2.5152 C   0  0  0  0  0  4           0  0  0
  -10.4013   -0.5522    3.4333 C   0  0  0  0  0  4           0  0  0
    1.9787    0.0000   -1.2901 C   0  0  0  0  0  4           0  0  0
    4.2973    4.7490   -5.6983 C   0  0  0  0  0  4           0  0  0
   -0.4295   -0.0023    3.6076 C   0  0  0  0  0  4           0  0  0
    4.2691    0.0000   -2.4392 C   0  0  0  0  0  4           0  0  0
    4.3204    2.4219   -2.5814 C   0  0  0  0  0  4           0  0  0
    4.6961    1.0654   -4.5527 C   0  0  0  0  0  4           0  0  0
   -9.3572   -1.6429    3.5137 C   0  0  0  0  0  4           0  0  0
    4.6916    3.5804   -4.8017 C   0  0  1  0  0  4           0  0  0
    3.4928    0.0000   -1.1205 C   0  0  0  0  0  4           0  0  0
    3.9902    3.6466   -3.4387 C   0  0  0  0  0  4           0  0  0
    4.3743    2.2427   -5.4751 C   0  0  0  0  0  4           0  0  0
  1 13  1  0     0  0
  1 14  1  0     0  0
  2 15  1  0     0  0
  3 16  1  0     0  0
  3 31  1  0     0  0
  4 17  1  0     0  0
  4 33  1  0     0  0
  5 30  2  0     0  0
  6 32  1  0     0  0
  7 13  2  0     0  0
  7 21  1  0     0  0
  8 18  1  0     0  0
  8 19  2  0     0  0
  9 18  2  0     0  0
  9 20  1  0     0  0
 10 13  1  0     0  0
 10 19  1  0     0  0
 11 22  1  0     0  0
 11 30  1  0     0  0
 12 34  1  0     0  0
 12 35  1  0     0  0
 12 36  1  0     0  0
 14 21  2  0     0  0
 14 37  1  0     0  0
 15 24  2  0     0  0
 15 25  1  0     0  0
 16 17  2  0     0  0
 16 26  1  0     0  0
 17 27  1  0     0  0
 19 23  1  0     0  0
 20 23  1  0     0  0
 20 26  2  0     0  0
 22 24  1  0     0  0
 22 28  2  0     0  0
 23 27  2  0     0  0
 25 29  2  0     0  0
 28 29  1  0     0  0
 30 37  1  0     0  0
 31 39  1  0     0  0
 32 38  1  0     0  0
 34 39  1  0     0  0
 35 40  1  0     0  0
 36 41  1  0     0  0
 38 40  1  0     0  0
 38 41  1  0     0  0
M  END
> <standard_type>
pIC50

> <# Confs.>
25

> <canonical_smiles>
FC1=CC(NC(CC2=CN=C(NC(C3=C4)=NC=NC3=CC(OCCCN5CCC(CO)CC5)=C4OC)S2)=O)=CC=C1

> <standard_relation>
=

> <Publication_ID>
nan

> <predicted_activity_value>
8.013228265733755

> <actual_activity_value>
8.154901959985743

> <Compound>
3

> <standard_units>
nM

> hash
6019588431572444200

$$$$
2
XXILIB    08252103493D 0   0.00000     0.00000

 41 45  0     1  0            999 V2000
   -6.8804   -0.4089    3.1470 S   0  0  0  0  0  2           0  0  0
   -6.3554   -4.1809    9.4833 F   0  0  0  0  0  1           0  0  0
    1.3667   -0.0000    0.0000 O   0  0  0  0  0  2           0  0  0
    0.2177   -0.0024    2.3373 O   0  0  0  0  0  2           0  0  0
   -9.4492   -4.0304    3.7381 O   0  0  0  0  0  2           0  0  0
    4.9476    7.5396   -3.6848 O   0  0  0  0  0  2           0  0  0
   -6.8794   -1.1959    0.6986 N   0  0  0  0  0  3           0  0  0
   -4.9314   -0.0106   -1.0184 N   0  0  0  0  0  3           0  0  0
   -2.8735   -0.0286   -2.2467 N   0  0  0  0  0  3           0  0  0
   -4.9501    0.0475    1.3655 N   0  0  0  0  0  3           0  0  0
   -8.4272   -2.7939    5.4206 N   0  0  0  0  0  3           0  0  0
    3.9770    2.6485   -2.2502 N   0  0  1  0  0  3           0  0  0
   -6.1570   -0.5277    1.5781 C   0  0  0  0  0  4           0  0  0
   -8.2256   -1.3195    2.6072 C   0  0  0  0  0  4           0  0  0
   -6.9921   -4.5081    8.3501 C   0  0  0  0  0  4           0  0  0
    0.0000    0.0000    0.0000 C   0  0  0  0  0  4           0  0  0
   -0.6166    0.0000    1.2550 C   0  0  0  0  0  4           0  0  0
   -4.2104   -0.0337   -2.1473 C   0  0  0  0  0  4           0  0  0
   -4.2389    0.0348    0.1470 C   0  0  0  0  0  4           0  0  0
   -2.1847   -0.0091   -1.0980 C   0  0  0  0  0  4           0  0  0
   -8.0477   -1.6451    1.2796 C   0  0  0  0  0  4           0  0  0
   -8.0477   -3.8369    6.2866 C   0  0  0  0  0  4           0  0  0
   -2.8197    0.0123    0.1589 C   0  0  0  0  0  4           0  0  0
   -7.3838   -3.5011    7.4709 C   0  0  0  0  0  4           0  0  0
   -7.2499   -5.8464    8.0718 C   0  0  0  0  0  4           0  0  0
   -0.7927   -0.0125   -1.1550 C   0  0  0  0  0  4           0  0  0
   -2.0142    0.0046    1.3272 C   0  0  0  0  0  4           0  0  0
   -8.3123   -5.1833    6.0008 C   0  0  0  0  0  4           0  0  0
   -7.9142   -6.1823    6.8944 C   0  0  0  0  0  4           0  0  0
   -9.0883   -2.9552    4.2150 C   0  0  0  0  0  4           0  0  0
    1.9787    0.6451   -1.1173 C   0  0  0  0  0  4           0  0  0
    4.2973    6.9619   -2.5604 C   0  0  0  0  0  4           0  0  0
   -0.4295   -0.0023    3.6076 C   0  0  0  0  0  4           0  0  0
    4.2691    1.2196   -2.1124 C   0  0  0  0  0  4           0  0  0
    4.3204    3.3881   -1.0246 C   0  0  0  0  0  4           0  0  0
    4.6961    3.1991   -3.4101 C   0  0  0  0  0  4           0  0  0
   -9.3572   -1.6429    3.5137 C   0  0  0  0  0  4           0  0  0
    4.6916    5.5016   -2.3682 C   0  0  1  0  0  4           0  0  0
    3.4928    0.5602   -0.9704 C   0  0  0  0  0  4           0  0  0
    3.9902    4.8774   -1.1548 C   0  0  0  0  0  4           0  0  0
    4.3743    4.6798   -3.6202 C   0  0  0  0  0  4           0  0  0
  1 13  1  0     0  0
  1 14  1  0     0  0
  2 15  1  0     0  0
  3 16  1  0     0  0
  3 31  1  0     0  0
  4 17  1  0     0  0
  4 33  1  0     0  0
  5 30  2  0     0  0
  6 32  1  0     0  0
  7 13  2  0     0  0
  7 21  1  0     0  0
  8 18  1  0     0  0
  8 19  2  0     0  0
  9 18  2  0     0  0
  9 20  1  0     0  0
 10 13  1  0     0  0
 10 19  1  0     0  0
 11 22  1  0     0  0
 11 30  1  0     0  0
 12 34  1  0     0  0
 12 35  1  0     0  0
 12 36  1  0     0  0
 14 21  2  0     0  0
 14 37  1  0     0  0
 15 24  2  0     0  0
 15 25  1  0     0  0
 16 17  2  0     0  0
 16 26  1  0     0  0
 17 27  1  0     0  0
 19 23  1  0     0  0
 20 23  1  0     0  0
 20 26  2  0     0  0
 22 24  1  0     0  0
 22 28  2  0     0  0
 23 27  2  0     0  0
 25 29  2  0     0  0
 28 29  1  0     0  0
 30 37  1  0     0  0
 31 39  1  0     0  0
 32 38  1  0     0  0
 34 39  1  0     0  0
 35 40  1  0     0  0
 36 41  1  0     0  0
 38 40  1  0     0  0
 38 41  1  0     0  0
M  END
> <standard_type>
pIC50

> <# Confs.>
25

> <canonical_smiles>
FC1=CC(NC(CC2=CN=C(NC(C3=C4)=NC=NC3=CC(OCCCN5CCC(CO)CC5)=C4OC)S2)=O)=CC=C1

> <standard_relation>
=

> <Publication_ID>
nan

> <predicted_activity_value>
8.013228265733755

> <actual_activity_value>
8.154901959985743

> <Compound>
3

> <standard_units>
nM

> hash
6019588431572444200

$$$$
2
XXILIB    08252103493D 0   0.00000     0.00000

 41 45  0     1  0            999 V2000
   -6.8804   -0.4089    3.1470 S   0  0  0  0  0  2           0  0  0
   -7.8365   -8.0699    6.2468 F   0  0  0  0  0  1           0  0  0
    1.3667    0.0000    0.0000 O   0  0  0  0  0  2           0  0  0
    0.2177   -0.0024    2.3373 O   0  0  0  0  0  2           0  0  0
  -10.5800   -3.4586    2.5304 O   0  0  0  0  0  2           0  0  0
    2.7997    7.6143   -4.8183 O   0  0  0  0  0  2           0  0  0
   -6.8794   -1.1959    0.6986 N   0  0  0  0  0  3           0  0  0
   -4.9314   -0.0106   -1.0184 N   0  0  0  0  0  3           0  0  0
   -2.8735   -0.0286   -2.2467 N   0  0  0  0  0  3           0  0  0
   -4.9501    0.0475    1.3655 N   0  0  0  0  0  3           0  0  0
   -9.0601   -3.9301    4.2251 N   0  0  0  0  0  3           0  0  0
    3.3335    3.0793   -2.3540 N   0  0  1  0  0  3           0  0  0
   -6.1570   -0.5277    1.5781 C   0  0  0  0  0  4           0  0  0
   -8.2256   -1.3195    2.6072 C   0  0  0  0  0  4           0  0  0
   -8.5722   -7.4075    5.3430 C   0  0  0  0  0  4           0  0  0
    0.0000    0.0000    0.0000 C   0  0  0  0  0  4           0  0  0
   -0.6166    0.0000    1.2550 C   0  0  0  0  0  4           0  0  0
   -4.2104   -0.0337   -2.1473 C   0  0  0  0  0  4           0  0  0
   -4.2389    0.0348    0.1470 C   0  0  0  0  0  4           0  0  0
   -2.1847   -0.0091   -1.0980 C   0  0  0  0  0  4           0  0  0
   -8.0477   -1.6451    1.2796 C   0  0  0  0  0  4           0  0  0
   -9.2126   -5.3277    4.3006 C   0  0  0  0  0  4           0  0  0
   -2.8197    0.0123    0.1589 C   0  0  0  0  0  4           0  0  0
   -8.4480   -6.0237    5.2423 C   0  0  0  0  0  4           0  0  0
   -9.4457   -8.1130    4.5220 C   0  0  0  0  0  4           0  0  0
   -0.7927   -0.0125   -1.1550 C   0  0  0  0  0  4           0  0  0
   -2.0142    0.0046    1.3272 C   0  0  0  0  0  4           0  0  0
  -10.0961   -6.0320    3.4713 C   0  0  0  0  0  4           0  0  0
  -10.2105   -7.4208    3.5858 C   0  0  0  0  0  4           0  0  0
   -9.7388   -3.0971    3.3523 C   0  0  0  0  0  4           0  0  0
    1.9787    0.6451   -1.1173 C   0  0  0  0  0  4           0  0  0
    2.1271    7.0146   -3.7187 C   0  0  0  0  0  4           0  0  0
   -0.4295   -0.0023    3.6076 C   0  0  0  0  0  4           0  0  0
    4.0782    1.9476   -1.7966 C   0  0  0  0  0  4           0  0  0
    3.0372    4.0880   -1.3235 C   0  0  0  0  0  4           0  0  0
    4.0868    3.6775   -3.4675 C   0  0  0  0  0  4           0  0  0
   -9.3572   -1.6429    3.5137 C   0  0  0  0  0  4           0  0  0
    2.9597    5.9066   -3.0831 C   0  0  1  0  0  4           0  0  0
    3.3184    1.2254   -0.6818 C   0  0  0  0  0  4           0  0  0
    2.2344    5.2589   -1.8963 C   0  0  0  0  0  4           0  0  0
    3.3163    4.8311   -4.1124 C   0  0  0  0  0  4           0  0  0
  1 13  1  0     0  0
  1 14  1  0     0  0
  2 15  1  0     0  0
  3 16  1  0     0  0
  3 31  1  0     0  0
  4 17  1  0     0  0
  4 33  1  0     0  0
  5 30  2  0     0  0
  6 32  1  0     0  0
  7 13  2  0     0  0
  7 21  1  0     0  0
  8 18  1  0     0  0
  8 19  2  0     0  0
  9 18  2  0     0  0
  9 20  1  0     0  0
 10 13  1  0     0  0
 10 19  1  0     0  0
 11 22  1  0     0  0
 11 30  1  0     0  0
 12 34  1  0     0  0
 12 35  1  0     0  0
 12 36  1  0     0  0
 14 21  2  0     0  0
 14 37  1  0     0  0
 15 24  2  0     0  0
 15 25  1  0     0  0
 16 17  2  0     0  0
 16 26  1  0     0  0
 17 27  1  0     0  0
 19 23  1  0     0  0
 20 23  1  0     0  0
 20 26  2  0     0  0
 22 24  1  0     0  0
 22 28  2  0     0  0
 23 27  2  0     0  0
 25 29  2  0     0  0
 28 29  1  0     0  0
 30 37  1  0     0  0
 31 39  1  0     0  0
 32 38  1  0     0  0
 34 39  1  0     0  0
 35 40  1  0     0  0
 36 41  1  0     0  0
 38 40  1  0     0  0
 38 41  1  0     0  0
M  END
> <standard_type>
pIC50

> <# Confs.>
25

> <canonical_smiles>
FC1=CC(NC(CC2=CN=C(NC(C3=C4)=NC=NC3=CC(OCCCN5CCC(CO)CC5)=C4OC)S2)=O)=CC=C1

> <standard_relation>
=

> <Publication_ID>
nan

> <predicted_activity_value>
8.013228265733755

> <actual_activity_value>
8.154901959985743

> <Compound>
3

> <standard_units>
nM

> hash
6019588431572444200

$$$$
2
XXILIB    08252103493D 0   0.00000     0.00000

 41 45  0     1  0            999 V2000
   -6.8804   -0.4089    3.1470 S   0  0  0  0  0  2           0  0  0
  -14.1166    3.5667    2.3753 F   0  0  0  0  0  1           0  0  0
    1.3667    0.0000    0.0000 O   0  0  0  0  0  2           0  0  0
    0.2177   -0.0024    2.3373 O   0  0  0  0  0  2           0  0  0
  -11.2240   -2.2799    2.1469 O   0  0  0  0  0  2           0  0  0
    2.7997    7.6143   -4.8183 O   0  0  0  0  0  2           0  0  0
   -6.8794   -1.1959    0.6986 N   0  0  0  0  0  3           0  0  0
   -4.9314   -0.0106   -1.0184 N   0  0  0  0  0  3           0  0  0
   -2.8735   -0.0286   -2.2467 N   0  0  0  0  0  3           0  0  0
   -4.9501    0.0475    1.3655 N   0  0  0  0  0  3           0  0  0
  -11.1290   -0.1021    2.9547 N   0  0  0  0  0  3           0  0  0
    3.3335    3.0793   -2.3540 N   0  0  1  0  0  3           0  0  0
   -6.1570   -0.5277    1.5781 C   0  0  0  0  0  4           0  0  0
   -8.2256   -1.3195    2.6072 C   0  0  0  0  0  4           0  0  0
  -13.8122    2.2849    2.1284 C   0  0  0  0  0  4           0  0  0
    0.0000    0.0000    0.0000 C   0  0  0  0  0  4           0  0  0
   -0.6166    0.0000    1.2550 C   0  0  0  0  0  4           0  0  0
   -4.2104   -0.0337   -2.1473 C   0  0  0  0  0  4           0  0  0
   -4.2389    0.0348    0.1470 C   0  0  0  0  0  4           0  0  0
   -2.1847   -0.0091   -1.0980 C   0  0  0  0  0  4           0  0  0
   -8.0477   -1.6451    1.2796 C   0  0  0  0  0  4           0  0  0
  -12.3190    0.4094    2.4031 C   0  0  0  0  0  4           0  0  0
   -2.8197    0.0123    0.1589 C   0  0  0  0  0  4           0  0  0
  -12.6412    1.7465    2.6570 C   0  0  0  0  0  4           0  0  0
  -14.6702    1.5154    1.3496 C   0  0  0  0  0  4           0  0  0
   -0.7927   -0.0125   -1.1550 C   0  0  0  0  0  4           0  0  0
   -2.0142    0.0046    1.3272 C   0  0  0  0  0  4           0  0  0
  -13.1782   -0.3713    1.6177 C   0  0  0  0  0  4           0  0  0
  -14.3490    0.1844    1.0930 C   0  0  0  0  0  4           0  0  0
  -10.6672   -1.3979    2.7995 C   0  0  0  0  0  4           0  0  0
    1.9787    0.6451   -1.1173 C   0  0  0  0  0  4           0  0  0
    2.1271    7.0146   -3.7187 C   0  0  0  0  0  4           0  0  0
   -0.4295   -0.0023    3.6076 C   0  0  0  0  0  4           0  0  0
    4.0782    1.9476   -1.7966 C   0  0  0  0  0  4           0  0  0
    3.0372    4.0880   -1.3235 C   0  0  0  0  0  4           0  0  0
    4.0868    3.6775   -3.4675 C   0  0  0  0  0  4           0  0  0
   -9.3572   -1.6429    3.5137 C   0  0  0  0  0  4           0  0  0
    2.9597    5.9066   -3.0831 C   0  0  1  0  0  4           0  0  0
    3.3184    1.2254   -0.6818 C   0  0  0  0  0  4           0  0  0
    2.2344    5.2589   -1.8963 C   0  0  0  0  0  4           0  0  0
    3.3163    4.8311   -4.1124 C   0  0  0  0  0  4           0  0  0
  1 13  1  0     0  0
  1 14  1  0     0  0
  2 15  1  0     0  0
  3 16  1  0     0  0
  3 31  1  0     0  0
  4 17  1  0     0  0
  4 33  1  0     0  0
  5 30  2  0     0  0
  6 32  1  0     0  0
  7 13  2  0     0  0
  7 21  1  0     0  0
  8 18  1  0     0  0
  8 19  2  0     0  0
  9 18  2  0     0  0
  9 20  1  0     0  0
 10 13  1  0     0  0
 10 19  1  0     0  0
 11 22  1  0     0  0
 11 30  1  0     0  0
 12 34  1  0     0  0
 12 35  1  0     0  0
 12 36  1  0     0  0
 14 21  2  0     0  0
 14 37  1  0     0  0
 15 24  2  0     0  0
 15 25  1  0     0  0
 16 17  2  0     0  0
 16 26  1  0     0  0
 17 27  1  0     0  0
 19 23  1  0     0  0
 20 23  1  0     0  0
 20 26  2  0     0  0
 22 24  1  0     0  0
 22 28  2  0     0  0
 23 27  2  0     0  0
 25 29  2  0     0  0
 28 29  1  0     0  0
 30 37  1  0     0  0
 31 39  1  0     0  0
 32 38  1  0     0  0
 34 39  1  0     0  0
 35 40  1  0     0  0
 36 41  1  0     0  0
 38 40  1  0     0  0
 38 41  1  0     0  0
M  END
> <standard_type>
pIC50

> <# Confs.>
25

> <canonical_smiles>
FC1=CC(NC(CC2=CN=C(NC(C3=C4)=NC=NC3=CC(OCCCN5CCC(CO)CC5)=C4OC)S2)=O)=CC=C1

> <standard_relation>
=

> <Publication_ID>
nan

> <predicted_activity_value>
8.013228265733755

> <actual_activity_value>
8.154901959985743

> <Compound>
3

> <standard_units>
nM

> hash
6019588431572444200

$$$$
2
XXILIB    08252103493D 0   0.00000     0.00000

 41 45  0     1  0            999 V2000
   -6.8804   -0.4089    3.1470 S   0  0  0  0  0  2           0  0  0
   -7.8365   -8.0699    6.2468 F   0  0  0  0  0  1           0  0  0
    1.3667   -0.0000   -0.0000 O   0  0  0  0  0  2           0  0  0
    0.2177   -0.0024    2.3373 O   0  0  0  0  0  2           0  0  0
  -10.5800   -3.4586    2.5304 O   0  0  0  0  0  2           0  0  0
    7.0345    0.4208   -7.1377 O   0  0  0  0  0  2           0  0  0
   -6.8794   -1.1959    0.6986 N   0  0  0  0  0  3           0  0  0
   -4.9314   -0.0106   -1.0184 N   0  0  0  0  0  3           0  0  0
   -2.8735   -0.0286   -2.2467 N   0  0  0  0  0  3           0  0  0
   -4.9501    0.0475    1.3655 N   0  0  0  0  0  3           0  0  0
   -9.0601   -3.9301    4.2251 N   0  0  0  0  0  3           0  0  0
    4.3893   -1.0761   -2.9323 N   0  0  1  0  0  3           0  0  0
   -6.1570   -0.5277    1.5781 C   0  0  0  0  0  4           0  0  0
   -8.2256   -1.3195    2.6072 C   0  0  0  0  0  4           0  0  0
   -8.5722   -7.4075    5.3430 C   0  0  0  0  0  4           0  0  0
    0.0000    0.0000    0.0000 C   0  0  0  0  0  4           0  0  0
   -0.6166    0.0000    1.2550 C   0  0  0  0  0  4           0  0  0
   -4.2104   -0.0337   -2.1473 C   0  0  0  0  0  4           0  0  0
   -4.2389    0.0348    0.1470 C   0  0  0  0  0  4           0  0  0
   -2.1847   -0.0091   -1.0980 C   0  0  0  0  0  4           0  0  0
   -8.0477   -1.6451    1.2796 C   0  0  0  0  0  4           0  0  0
   -9.2126   -5.3277    4.3006 C   0  0  0  0  0  4           0  0  0
   -2.8197    0.0123    0.1589 C   0  0  0  0  0  4           0  0  0
   -8.4480   -6.0237    5.2423 C   0  0  0  0  0  4           0  0  0
   -9.4457   -8.1130    4.5220 C   0  0  0  0  0  4           0  0  0
   -0.7927   -0.0125   -1.1550 C   0  0  0  0  0  4           0  0  0
   -2.0142    0.0046    1.3272 C   0  0  0  0  0  4           0  0  0
  -10.0961   -6.0320    3.4713 C   0  0  0  0  0  4           0  0  0
  -10.2105   -7.4208    3.5858 C   0  0  0  0  0  4           0  0  0
   -9.7388   -3.0971    3.3523 C   0  0  0  0  0  4           0  0  0
    1.9787   -0.6451   -1.1173 C   0  0  0  0  0  4           0  0  0
    6.4178    1.1266   -6.0687 C   0  0  0  0  0  4           0  0  0
   -0.4295   -0.0023    3.6076 C   0  0  0  0  0  4           0  0  0
    4.0782   -1.9476   -1.7966 C   0  0  0  0  0  4           0  0  0
    5.2254    0.0639   -2.5219 C   0  0  0  0  0  4           0  0  0
    5.0495   -1.8510   -3.9948 C   0  0  0  0  0  4           0  0  0
   -9.3572   -1.6429    3.5137 C   0  0  0  0  0  4           0  0  0
    6.1946    0.2313   -4.8548 C   0  0  1  0  0  4           0  0  0
    3.3184   -1.2254   -0.6818 C   0  0  0  0  0  4           0  0  0
    5.5290    0.9924   -3.7008 C   0  0  0  0  0  4           0  0  0
    5.3426   -0.9864   -5.2222 C   0  0  0  0  0  4           0  0  0
  1 13  1  0     0  0
  1 14  1  0     0  0
  2 15  1  0     0  0
  3 16  1  0     0  0
  3 31  1  0     0  0
  4 17  1  0     0  0
  4 33  1  0     0  0
  5 30  2  0     0  0
  6 32  1  0     0  0
  7 13  2  0     0  0
  7 21  1  0     0  0
  8 18  1  0     0  0
  8 19  2  0     0  0
  9 18  2  0     0  0
  9 20  1  0     0  0
 10 13  1  0     0  0
 10 19  1  0     0  0
 11 22  1  0     0  0
 11 30  1  0     0  0
 12 34  1  0     0  0
 12 35  1  0     0  0
 12 36  1  0     0  0
 14 21  2  0     0  0
 14 37  1  0     0  0
 15 24  2  0     0  0
 15 25  1  0     0  0
 16 17  2  0     0  0
 16 26  1  0     0  0
 17 27  1  0     0  0
 19 23  1  0     0  0
 20 23  1  0     0  0
 20 26  2  0     0  0
 22 24  1  0     0  0
 22 28  2  0     0  0
 23 27  2  0     0  0
 25 29  2  0     0  0
 28 29  1  0     0  0
 30 37  1  0     0  0
 31 39  1  0     0  0
 32 38  1  0     0  0
 34 39  1  0     0  0
 35 40  1  0     0  0
 36 41  1  0     0  0
 38 40  1  0     0  0
 38 41  1  0     0  0
M  END
> <standard_type>
pIC50

> <# Confs.>
25

> <canonical_smiles>
FC1=CC(NC(CC2=CN=C(NC(C3=C4)=NC=NC3=CC(OCCCN5CCC(CO)CC5)=C4OC)S2)=O)=CC=C1

> <standard_relation>
=

> <Publication_ID>
nan

> <predicted_activity_value>
8.013228265733755

> <actual_activity_value>
8.154901959985743

> <Compound>
3

> <standard_units>
nM

> hash
6019588431572444200

$$$$
2
XXILIB    08252103493D 0   0.00000     0.00000

 41 45  0     1  0            999 V2000
   -6.8804   -0.4089    3.1470 S   0  0  0  0  0  2           0  0  0
  -11.0510    4.5930    6.5686 F   0  0  0  0  0  1           0  0  0
    1.3667    0.0000    0.0000 O   0  0  0  0  0  2           0  0  0
    0.2177   -0.0024    2.3373 O   0  0  0  0  0  2           0  0  0
  -11.3247   -0.5980    2.6214 O   0  0  0  0  0  2           0  0  0
    2.7997    7.6143   -4.8183 O   0  0  0  0  0  2           0  0  0
   -6.8794   -1.1959    0.6986 N   0  0  0  0  0  3           0  0  0
   -4.9314   -0.0106   -1.0184 N   0  0  0  0  0  3           0  0  0
   -2.8735   -0.0286   -2.2467 N   0  0  0  0  0  3           0  0  0
   -4.9501    0.0475    1.3655 N   0  0  0  0  0  3           0  0  0
  -10.1814    0.4693    4.3414 N   0  0  0  0  0  3           0  0  0
    3.3335    3.0793   -2.3540 N   0  0  1  0  0  3           0  0  0
   -6.1570   -0.5277    1.5781 C   0  0  0  0  0  4           0  0  0
   -8.2256   -1.3195    2.6072 C   0  0  0  0  0  4           0  0  0
  -11.4036    3.6949    5.6382 C   0  0  0  0  0  4           0  0  0
    0.0000    0.0000    0.0000 C   0  0  0  0  0  4           0  0  0
   -0.6166    0.0000    1.2550 C   0  0  0  0  0  4           0  0  0
   -4.2104   -0.0337   -2.1473 C   0  0  0  0  0  4           0  0  0
   -4.2389    0.0348    0.1470 C   0  0  0  0  0  4           0  0  0
   -2.1847   -0.0091   -1.0980 C   0  0  0  0  0  4           0  0  0
   -8.0477   -1.6451    1.2796 C   0  0  0  0  0  4           0  0  0
  -10.9895    1.6123    4.4920 C   0  0  0  0  0  4           0  0  0
   -2.8197    0.0123    0.1589 C   0  0  0  0  0  4           0  0  0
  -10.6257    2.5530    5.4609 C   0  0  0  0  0  4           0  0  0
  -12.5394    3.9184    4.8670 C   0  0  0  0  0  4           0  0  0
   -0.7927   -0.0125   -1.1550 C   0  0  0  0  0  4           0  0  0
   -2.0142    0.0046    1.3272 C   0  0  0  0  0  4           0  0  0
  -12.1318    1.8320    3.7102 C   0  0  0  0  0  4           0  0  0
  -12.9012    2.9841    3.8992 C   0  0  0  0  0  4           0  0  0
  -10.4013   -0.5522    3.4333 C   0  0  0  0  0  4           0  0  0
    1.9787    0.6451   -1.1173 C   0  0  0  0  0  4           0  0  0
    2.1271    7.0146   -3.7187 C   0  0  0  0  0  4           0  0  0
   -0.4295   -0.0023    3.6076 C   0  0  0  0  0  4           0  0  0
    4.0782    1.9476   -1.7966 C   0  0  0  0  0  4           0  0  0
    3.0372    4.0880   -1.3235 C   0  0  0  0  0  4           0  0  0
    4.0868    3.6775   -3.4675 C   0  0  0  0  0  4           0  0  0
   -9.3572   -1.6429    3.5137 C   0  0  0  0  0  4           0  0  0
    2.9597    5.9066   -3.0831 C   0  0  1  0  0  4           0  0  0
    3.3184    1.2254   -0.6818 C   0  0  0  0  0  4           0  0  0
    2.2344    5.2589   -1.8963 C   0  0  0  0  0  4           0  0  0
    3.3163    4.8311   -4.1124 C   0  0  0  0  0  4           0  0  0
  1 13  1  0     0  0
  1 14  1  0     0  0
  2 15  1  0     0  0
  3 16  1  0     0  0
  3 31  1  0     0  0
  4 17  1  0     0  0
  4 33  1  0     0  0
  5 30  2  0     0  0
  6 32  1  0     0  0
  7 13  2  0     0  0
  7 21  1  0     0  0
  8 18  1  0     0  0
  8 19  2  0     0  0
  9 18  2  0     0  0
  9 20  1  0     0  0
 10 13  1  0     0  0
 10 19  1  0     0  0
 11 22  1  0     0  0
 11 30  1  0     0  0
 12 34  1  0     0  0
 12 35  1  0     0  0
 12 36  1  0     0  0
 14 21  2  0     0  0
 14 37  1  0     0  0
 15 24  2  0     0  0
 15 25  1  0     0  0
 16 17  2  0     0  0
 16 26  1  0     0  0
 17 27  1  0     0  0
 19 23  1  0     0  0
 20 23  1  0     0  0
 20 26  2  0     0  0
 22 24  1  0     0  0
 22 28  2  0     0  0
 23 27  2  0     0  0
 25 29  2  0     0  0
 28 29  1  0     0  0
 30 37  1  0     0  0
 31 39  1  0     0  0
 32 38  1  0     0  0
 34 39  1  0     0  0
 35 40  1  0     0  0
 36 41  1  0     0  0
 38 40  1  0     0  0
 38 41  1  0     0  0
M  END
> <standard_type>
pIC50

> <# Confs.>
25

> <canonical_smiles>
FC1=CC(NC(CC2=CN=C(NC(C3=C4)=NC=NC3=CC(OCCCN5CCC(CO)CC5)=C4OC)S2)=O)=CC=C1

> <standard_relation>
=

> <Publication_ID>
nan

> <predicted_activity_value>
8.013228265733755

> <actual_activity_value>
8.154901959985743

> <Compound>
3

> <standard_units>
nM

> hash
6019588431572444200

$$$$
2
XXILIB    08252103493D 0   0.00000     0.00000

 41 45  0     1  0            999 V2000
   -6.8804   -0.4089    3.1470 S   0  0  0  0  0  2           0  0  0
   -7.8365   -8.0699    6.2468 F   0  0  0  0  0  1           0  0  0
    1.3667   -0.0000    0.0000 O   0  0  0  0  0  2           0  0  0
    0.2177   -0.0024    2.3373 O   0  0  0  0  0  2           0  0  0
  -10.5800   -3.4586    2.5304 O   0  0  0  0  0  2           0  0  0
   10.0268   -2.3939    2.0055 O   0  0  0  0  0  2           0  0  0
   -6.8794   -1.1959    0.6986 N   0  0  0  0  0  3           0  0  0
   -4.9314   -0.0106   -1.0184 N   0  0  0  0  0  3           0  0  0
   -2.8735   -0.0286   -2.2467 N   0  0  0  0  0  3           0  0  0
   -4.9501    0.0475    1.3655 N   0  0  0  0  0  3           0  0  0
   -9.0601   -3.9301    4.2251 N   0  0  0  0  0  3           0  0  0
    5.4929   -1.1838   -0.2086 N   0  0  1  0  0  3           0  0  0
   -6.1570   -0.5277    1.5781 C   0  0  0  0  0  4           0  0  0
   -8.2256   -1.3195    2.6072 C   0  0  0  0  0  4           0  0  0
   -8.5722   -7.4075    5.3430 C   0  0  0  0  0  4           0  0  0
    0.0000    0.0000    0.0000 C   0  0  0  0  0  4           0  0  0
   -0.6166    0.0000    1.2550 C   0  0  0  0  0  4           0  0  0
   -4.2104   -0.0337   -2.1473 C   0  0  0  0  0  4           0  0  0
   -4.2389    0.0348    0.1470 C   0  0  0  0  0  4           0  0  0
   -2.1847   -0.0091   -1.0980 C   0  0  0  0  0  4           0  0  0
   -8.0477   -1.6451    1.2796 C   0  0  0  0  0  4           0  0  0
   -9.2126   -5.3277    4.3006 C   0  0  0  0  0  4           0  0  0
   -2.8197    0.0123    0.1589 C   0  0  0  0  0  4           0  0  0
   -8.4480   -6.0237    5.2423 C   0  0  0  0  0  4           0  0  0
   -9.4457   -8.1130    4.5220 C   0  0  0  0  0  4           0  0  0
   -0.7927   -0.0125   -1.1550 C   0  0  0  0  0  4           0  0  0
   -2.0142    0.0046    1.3272 C   0  0  0  0  0  4           0  0  0
  -10.0961   -6.0320    3.4713 C   0  0  0  0  0  4           0  0  0
  -10.2105   -7.4208    3.5858 C   0  0  0  0  0  4           0  0  0
   -9.7388   -3.0971    3.3523 C   0  0  0  0  0  4           0  0  0
    1.9787    0.0000   -1.2901 C   0  0  0  0  0  4           0  0  0
    9.5265   -1.2179    1.3829 C   0  0  0  0  0  4           0  0  0
   -0.4295   -0.0023    3.6076 C   0  0  0  0  0  4           0  0  0
    4.0357   -1.2098   -0.3568 C   0  0  0  0  0  4           0  0  0
    5.9375    0.0125    0.5252 C   0  0  0  0  0  4           0  0  0
    5.9518   -2.4090    0.4649 C   0  0  0  0  0  4           0  0  0
   -9.3572   -1.6429    3.5137 C   0  0  0  0  0  4           0  0  0
    8.0027   -1.2115    1.3291 C   0  0  1  0  0  4           0  0  0
    3.4928   -0.0000   -1.1205 C   0  0  0  0  0  4           0  0  0
    7.4621    0.0575    0.6573 C   0  0  0  0  0  4           0  0  0
    7.4761   -2.4445    0.5905 C   0  0  0  0  0  4           0  0  0
  1 13  1  0     0  0
  1 14  1  0     0  0
  2 15  1  0     0  0
  3 16  1  0     0  0
  3 31  1  0     0  0
  4 17  1  0     0  0
  4 33  1  0     0  0
  5 30  2  0     0  0
  6 32  1  0     0  0
  7 13  2  0     0  0
  7 21  1  0     0  0
  8 18  1  0     0  0
  8 19  2  0     0  0
  9 18  2  0     0  0
  9 20  1  0     0  0
 10 13  1  0     0  0
 10 19  1  0     0  0
 11 22  1  0     0  0
 11 30  1  0     0  0
 12 34  1  0     0  0
 12 35  1  0     0  0
 12 36  1  0     0  0
 14 21  2  0     0  0
 14 37  1  0     0  0
 15 24  2  0     0  0
 15 25  1  0     0  0
 16 17  2  0     0  0
 16 26  1  0     0  0
 17 27  1  0     0  0
 19 23  1  0     0  0
 20 23  1  0     0  0
 20 26  2  0     0  0
 22 24  1  0     0  0
 22 28  2  0     0  0
 23 27  2  0     0  0
 25 29  2  0     0  0
 28 29  1  0     0  0
 30 37  1  0     0  0
 31 39  1  0     0  0
 32 38  1  0     0  0
 34 39  1  0     0  0
 35 40  1  0     0  0
 36 41  1  0     0  0
 38 40  1  0     0  0
 38 41  1  0     0  0
M  END
> <standard_type>
pIC50

> <# Confs.>
25

> <canonical_smiles>
FC1=CC(NC(CC2=CN=C(NC(C3=C4)=NC=NC3=CC(OCCCN5CCC(CO)CC5)=C4OC)S2)=O)=CC=C1

> <standard_relation>
=

> <Publication_ID>
nan

> <predicted_activity_value>
8.013228265733755

> <actual_activity_value>
8.154901959985743

> <Compound>
3

> <standard_units>
nM

> hash
6019588431572444200

$$$$
2
XXILIB    08252103493D 0   0.00000     0.00000

 41 45  0     1  0            999 V2000
   -6.8804   -0.4089    3.1470 S   0  0  0  0  0  2           0  0  0
   -7.8365   -8.0699    6.2468 F   0  0  0  0  0  1           0  0  0
    1.3667    0.0000    0.0000 O   0  0  0  0  0  2           0  0  0
    0.2177   -0.0024    2.3373 O   0  0  0  0  0  2           0  0  0
  -10.5800   -3.4586    2.5304 O   0  0  0  0  0  2           0  0  0
    4.9476    0.5787   -8.3719 O   0  0  0  0  0  2           0  0  0
   -6.8794   -1.1959    0.6986 N   0  0  0  0  0  3           0  0  0
   -4.9314   -0.0106   -1.0184 N   0  0  0  0  0  3           0  0  0
   -2.8735   -0.0286   -2.2467 N   0  0  0  0  0  3           0  0  0
   -4.9501    0.0475    1.3655 N   0  0  0  0  0  3           0  0  0
   -9.0601   -3.9301    4.2251 N   0  0  0  0  0  3           0  0  0
    3.9770   -0.6245   -3.4188 N   0  0  1  0  0  3           0  0  0
   -6.1570   -0.5277    1.5781 C   0  0  0  0  0  4           0  0  0
   -8.2256   -1.3195    2.6072 C   0  0  0  0  0  4           0  0  0
   -8.5722   -7.4075    5.3430 C   0  0  0  0  0  4           0  0  0
    0.0000    0.0000    0.0000 C   0  0  0  0  0  4           0  0  0
   -0.6166    0.0000    1.2550 C   0  0  0  0  0  4           0  0  0
   -4.2104   -0.0337   -2.1473 C   0  0  0  0  0  4           0  0  0
   -4.2389    0.0348    0.1470 C   0  0  0  0  0  4           0  0  0
   -2.1847   -0.0091   -1.0980 C   0  0  0  0  0  4           0  0  0
   -8.0477   -1.6451    1.2796 C   0  0  0  0  0  4           0  0  0
   -9.2126   -5.3277    4.3006 C   0  0  0  0  0  4           0  0  0
   -2.8197    0.0123    0.1589 C   0  0  0  0  0  4           0  0  0
   -8.4480   -6.0237    5.2423 C   0  0  0  0  0  4           0  0  0
   -9.4457   -8.1130    4.5220 C   0  0  0  0  0  4           0  0  0
   -0.7927   -0.0125   -1.1550 C   0  0  0  0  0  4           0  0  0
   -2.0142    0.0046    1.3272 C   0  0  0  0  0  4           0  0  0
  -10.0961   -6.0320    3.4713 C   0  0  0  0  0  4           0  0  0
  -10.2105   -7.4208    3.5858 C   0  0  0  0  0  4           0  0  0
   -9.7388   -3.0971    3.3523 C   0  0  0  0  0  4           0  0  0
    1.9787   -0.6451   -1.1173 C   0  0  0  0  0  4           0  0  0
    4.2973    1.2636   -7.3093 C   0  0  0  0  0  4           0  0  0
   -0.4295   -0.0023    3.6076 C   0  0  0  0  0  4           0  0  0
    4.2691   -1.2196   -2.1124 C   0  0  0  0  0  4           0  0  0
    4.3204    0.8067   -3.4465 C   0  0  0  0  0  4           0  0  0
    4.6961   -1.3537   -4.4755 C   0  0  0  0  0  4           0  0  0
   -9.3572   -1.6429    3.5137 C   0  0  0  0  0  4           0  0  0
    4.6916    0.6999   -5.9486 C   0  0  1  0  0  4           0  0  0
    3.4928   -0.5602   -0.9704 C   0  0  0  0  0  4           0  0  0
    3.9902    1.4386   -4.8013 C   0  0  0  0  0  4           0  0  0
    4.3743   -0.7953   -5.8629 C   0  0  0  0  0  4           0  0  0
  1 13  1  0     0  0
  1 14  1  0     0  0
  2 15  1  0     0  0
  3 16  1  0     0  0
  3 31  1  0     0  0
  4 17  1  0     0  0
  4 33  1  0     0  0
  5 30  2  0     0  0
  6 32  1  0     0  0
  7 13  2  0     0  0
  7 21  1  0     0  0
  8 18  1  0     0  0
  8 19  2  0     0  0
  9 18  2  0     0  0
  9 20  1  0     0  0
 10 13  1  0     0  0
 10 19  1  0     0  0
 11 22  1  0     0  0
 11 30  1  0     0  0
 12 34  1  0     0  0
 12 35  1  0     0  0
 12 36  1  0     0  0
 14 21  2  0     0  0
 14 37  1  0     0  0
 15 24  2  0     0  0
 15 25  1  0     0  0
 16 17  2  0     0  0
 16 26  1  0     0  0
 17 27  1  0     0  0
 19 23  1  0     0  0
 20 23  1  0     0  0
 20 26  2  0     0  0
 22 24  1  0     0  0
 22 28  2  0     0  0
 23 27  2  0     0  0
 25 29  2  0     0  0
 28 29  1  0     0  0
 30 37  1  0     0  0
 31 39  1  0     0  0
 32 38  1  0     0  0
 34 39  1  0     0  0
 35 40  1  0     0  0
 36 41  1  0     0  0
 38 40  1  0     0  0
 38 41  1  0     0  0
M  END
> <standard_type>
pIC50

> <# Confs.>
25

> <canonical_smiles>
FC1=CC(NC(CC2=CN=C(NC(C3=C4)=NC=NC3=CC(OCCCN5CCC(CO)CC5)=C4OC)S2)=O)=CC=C1

> <standard_relation>
=

> <Publication_ID>
nan

> <predicted_activity_value>
8.013228265733755

> <actual_activity_value>
8.154901959985743

> <Compound>
3

> <standard_units>
nM

> hash
6019588431572444200

$$$$
2
XXILIB    08252103493D 0   0.00000     0.00000

 41 45  0     1  0            999 V2000
   -6.8804   -0.4089    3.1470 S   0  0  0  0  0  2           0  0  0
  -14.1166    3.5667    2.3753 F   0  0  0  0  0  1           0  0  0
    1.3667   -0.0000   -0.0000 O   0  0  0  0  0  2           0  0  0
    0.2177   -0.0024    2.3373 O   0  0  0  0  0  2           0  0  0
  -11.2240   -2.2799    2.1469 O   0  0  0  0  0  2           0  0  0
    7.0345    0.4208   -7.1377 O   0  0  0  0  0  2           0  0  0
   -6.8794   -1.1959    0.6986 N   0  0  0  0  0  3           0  0  0
   -4.9314   -0.0106   -1.0184 N   0  0  0  0  0  3           0  0  0
   -2.8735   -0.0286   -2.2467 N   0  0  0  0  0  3           0  0  0
   -4.9501    0.0475    1.3655 N   0  0  0  0  0  3           0  0  0
  -11.1290   -0.1021    2.9547 N   0  0  0  0  0  3           0  0  0
    4.3893   -1.0761   -2.9323 N   0  0  1  0  0  3           0  0  0
   -6.1570   -0.5277    1.5781 C   0  0  0  0  0  4           0  0  0
   -8.2256   -1.3195    2.6072 C   0  0  0  0  0  4           0  0  0
  -13.8122    2.2849    2.1284 C   0  0  0  0  0  4           0  0  0
    0.0000    0.0000    0.0000 C   0  0  0  0  0  4           0  0  0
   -0.6166    0.0000    1.2550 C   0  0  0  0  0  4           0  0  0
   -4.2104   -0.0337   -2.1473 C   0  0  0  0  0  4           0  0  0
   -4.2389    0.0348    0.1470 C   0  0  0  0  0  4           0  0  0
   -2.1847   -0.0091   -1.0980 C   0  0  0  0  0  4           0  0  0
   -8.0477   -1.6451    1.2796 C   0  0  0  0  0  4           0  0  0
  -12.3190    0.4094    2.4031 C   0  0  0  0  0  4           0  0  0
   -2.8197    0.0123    0.1589 C   0  0  0  0  0  4           0  0  0
  -12.6412    1.7465    2.6570 C   0  0  0  0  0  4           0  0  0
  -14.6702    1.5154    1.3496 C   0  0  0  0  0  4           0  0  0
   -0.7927   -0.0125   -1.1550 C   0  0  0  0  0  4           0  0  0
   -2.0142    0.0046    1.3272 C   0  0  0  0  0  4           0  0  0
  -13.1782   -0.3713    1.6177 C   0  0  0  0  0  4           0  0  0
  -14.3490    0.1844    1.0930 C   0  0  0  0  0  4           0  0  0
  -10.6672   -1.3979    2.7995 C   0  0  0  0  0  4           0  0  0
    1.9787   -0.6451   -1.1173 C   0  0  0  0  0  4           0  0  0
    6.4178    1.1266   -6.0687 C   0  0  0  0  0  4           0  0  0
   -0.4295   -0.0023    3.6076 C   0  0  0  0  0  4           0  0  0
    4.0782   -1.9476   -1.7966 C   0  0  0  0  0  4           0  0  0
    5.2254    0.0639   -2.5219 C   0  0  0  0  0  4           0  0  0
    5.0495   -1.8510   -3.9948 C   0  0  0  0  0  4           0  0  0
   -9.3572   -1.6429    3.5137 C   0  0  0  0  0  4           0  0  0
    6.1946    0.2313   -4.8548 C   0  0  1  0  0  4           0  0  0
    3.3184   -1.2254   -0.6818 C   0  0  0  0  0  4           0  0  0
    5.5290    0.9924   -3.7008 C   0  0  0  0  0  4           0  0  0
    5.3426   -0.9864   -5.2222 C   0  0  0  0  0  4           0  0  0
  1 13  1  0     0  0
  1 14  1  0     0  0
  2 15  1  0     0  0
  3 16  1  0     0  0
  3 31  1  0     0  0
  4 17  1  0     0  0
  4 33  1  0     0  0
  5 30  2  0     0  0
  6 32  1  0     0  0
  7 13  2  0     0  0
  7 21  1  0     0  0
  8 18  1  0     0  0
  8 19  2  0     0  0
  9 18  2  0     0  0
  9 20  1  0     0  0
 10 13  1  0     0  0
 10 19  1  0     0  0
 11 22  1  0     0  0
 11 30  1  0     0  0
 12 34  1  0     0  0
 12 35  1  0     0  0
 12 36  1  0     0  0
 14 21  2  0     0  0
 14 37  1  0     0  0
 15 24  2  0     0  0
 15 25  1  0     0  0
 16 17  2  0     0  0
 16 26  1  0     0  0
 17 27  1  0     0  0
 19 23  1  0     0  0
 20 23  1  0     0  0
 20 26  2  0     0  0
 22 24  1  0     0  0
 22 28  2  0     0  0
 23 27  2  0     0  0
 25 29  2  0     0  0
 28 29  1  0     0  0
 30 37  1  0     0  0
 31 39  1  0     0  0
 32 38  1  0     0  0
 34 39  1  0     0  0
 35 40  1  0     0  0
 36 41  1  0     0  0
 38 40  1  0     0  0
 38 41  1  0     0  0
M  END
> <standard_type>
pIC50

> <# Confs.>
25

> <canonical_smiles>
FC1=CC(NC(CC2=CN=C(NC(C3=C4)=NC=NC3=CC(OCCCN5CCC(CO)CC5)=C4OC)S2)=O)=CC=C1

> <standard_relation>
=

> <Publication_ID>
nan

> <predicted_activity_value>
8.013228265733755

> <actual_activity_value>
8.154901959985743

> <Compound>
3

> <standard_units>
nM

> hash
6019588431572444200

$$$$
2
XXILIB    08252103493D 0   0.00000     0.00000

 41 45  0     1  0            999 V2000
   -6.8804   -0.4089    3.1470 S   0  0  0  0  0  2           0  0  0
   -4.6246   -4.6464    7.9488 F   0  0  0  0  0  1           0  0  0
    1.3667   -0.0000    0.0000 O   0  0  0  0  0  2           0  0  0
    0.2177   -0.0024    2.3373 O   0  0  0  0  0  2           0  0  0
   -9.8417   -3.9204    4.0944 O   0  0  0  0  0  2           0  0  0
    4.6375    5.9995   -5.1139 O   0  0  0  0  0  2           0  0  0
   -6.8794   -1.1959    0.6986 N   0  0  0  0  0  3           0  0  0
   -4.9314   -0.0106   -1.0184 N   0  0  0  0  0  3           0  0  0
   -2.8735   -0.0286   -2.2467 N   0  0  0  0  0  3           0  0  0
   -4.9501    0.0475    1.3655 N   0  0  0  0  0  3           0  0  0
   -7.9425   -2.9240    4.9913 N   0  0  0  0  0  3           0  0  0
    3.9770    1.1686   -3.2730 N   0  0  1  0  0  3           0  0  0
   -6.1570   -0.5277    1.5781 C   0  0  0  0  0  4           0  0  0
   -8.2256   -1.3195    2.6072 C   0  0  0  0  0  4           0  0  0
   -5.7520   -4.8416    7.2507 C   0  0  0  0  0  4           0  0  0
    0.0000    0.0000    0.0000 C   0  0  0  0  0  4           0  0  0
   -0.6166    0.0000    1.2550 C   0  0  0  0  0  4           0  0  0
   -4.2104   -0.0337   -2.1473 C   0  0  0  0  0  4           0  0  0
   -4.2389    0.0348    0.1470 C   0  0  0  0  0  4           0  0  0
   -2.1847   -0.0091   -1.0980 C   0  0  0  0  0  4           0  0  0
   -8.0477   -1.6451    1.2796 C   0  0  0  0  0  4           0  0  0
   -7.4471   -3.9981    5.7547 C   0  0  0  0  0  4           0  0  0
   -2.8197    0.0123    0.1589 C   0  0  0  0  0  4           0  0  0
   -6.2714   -3.7997    6.4857 C   0  0  0  0  0  4           0  0  0
   -6.3829   -6.0802    7.3019 C   0  0  0  0  0  4           0  0  0
   -0.7927   -0.0125   -1.1550 C   0  0  0  0  0  4           0  0  0
   -2.0142    0.0046    1.3272 C   0  0  0  0  0  4           0  0  0
   -8.0890   -5.2431    5.8032 C   0  0  0  0  0  4           0  0  0
   -7.5559   -6.2784    6.5772 C   0  0  0  0  0  4           0  0  0
   -9.0883   -2.9552    4.2150 C   0  0  0  0  0  4           0  0  0
    1.9787    0.0000   -1.2901 C   0  0  0  0  0  4           0  0  0
    4.2973    4.7490   -5.6983 C   0  0  0  0  0  4           0  0  0
   -0.4295   -0.0023    3.6076 C   0  0  0  0  0  4           0  0  0
    4.2691    0.0000   -2.4392 C   0  0  0  0  0  4           0  0  0
    4.3204    2.4219   -2.5814 C   0  0  0  0  0  4           0  0  0
    4.6961    1.0654   -4.5527 C   0  0  0  0  0  4           0  0  0
   -9.3572   -1.6429    3.5137 C   0  0  0  0  0  4           0  0  0
    4.6916    3.5804   -4.8017 C   0  0  1  0  0  4           0  0  0
    3.4928    0.0000   -1.1205 C   0  0  0  0  0  4           0  0  0
    3.9902    3.6466   -3.4387 C   0  0  0  0  0  4           0  0  0
    4.3743    2.2427   -5.4751 C   0  0  0  0  0  4           0  0  0
  1 13  1  0     0  0
  1 14  1  0     0  0
  2 15  1  0     0  0
  3 16  1  0     0  0
  3 31  1  0     0  0
  4 17  1  0     0  0
  4 33  1  0     0  0
  5 30  2  0     0  0
  6 32  1  0     0  0
  7 13  2  0     0  0
  7 21  1  0     0  0
  8 18  1  0     0  0
  8 19  2  0     0  0
  9 18  2  0     0  0
  9 20  1  0     0  0
 10 13  1  0     0  0
 10 19  1  0     0  0
 11 22  1  0     0  0
 11 30  1  0     0  0
 12 34  1  0     0  0
 12 35  1  0     0  0
 12 36  1  0     0  0
 14 21  2  0     0  0
 14 37  1  0     0  0
 15 24  2  0     0  0
 15 25  1  0     0  0
 16 17  2  0     0  0
 16 26  1  0     0  0
 17 27  1  0     0  0
 19 23  1  0     0  0
 20 23  1  0     0  0
 20 26  2  0     0  0
 22 24  1  0     0  0
 22 28  2  0     0  0
 23 27  2  0     0  0
 25 29  2  0     0  0
 28 29  1  0     0  0
 30 37  1  0     0  0
 31 39  1  0     0  0
 32 38  1  0     0  0
 34 39  1  0     0  0
 35 40  1  0     0  0
 36 41  1  0     0  0
 38 40  1  0     0  0
 38 41  1  0     0  0
M  END
> <standard_type>
pIC50

> <# Confs.>
25

> <canonical_smiles>
FC1=CC(NC(CC2=CN=C(NC(C3=C4)=NC=NC3=CC(OCCCN5CCC(CO)CC5)=C4OC)S2)=O)=CC=C1

> <standard_relation>
=

> <Publication_ID>
nan

> <predicted_activity_value>
8.013228265733755

> <actual_activity_value>
8.154901959985743

> <Compound>
3

> <standard_units>
nM

> hash
6019588431572444200

$$$$
2
XXILIB    08252103493D 0   0.00000     0.00000

 41 45  0     1  0            999 V2000
   -6.8804   -0.4089    3.1470 S   0  0  0  0  0  2           0  0  0
  -14.1166    3.5667    2.3753 F   0  0  0  0  0  1           0  0  0
    1.3667   -0.0000    0.0000 O   0  0  0  0  0  2           0  0  0
    0.2177   -0.0024    2.3373 O   0  0  0  0  0  2           0  0  0
  -11.2240   -2.2799    2.1469 O   0  0  0  0  0  2           0  0  0
   10.0268   -2.3939    2.0055 O   0  0  0  0  0  2           0  0  0
   -6.8794   -1.1959    0.6986 N   0  0  0  0  0  3           0  0  0
   -4.9314   -0.0106   -1.0184 N   0  0  0  0  0  3           0  0  0
   -2.8735   -0.0286   -2.2467 N   0  0  0  0  0  3           0  0  0
   -4.9501    0.0475    1.3655 N   0  0  0  0  0  3           0  0  0
  -11.1290   -0.1021    2.9547 N   0  0  0  0  0  3           0  0  0
    5.4929   -1.1838   -0.2086 N   0  0  1  0  0  3           0  0  0
   -6.1570   -0.5277    1.5781 C   0  0  0  0  0  4           0  0  0
   -8.2256   -1.3195    2.6072 C   0  0  0  0  0  4           0  0  0
  -13.8122    2.2849    2.1284 C   0  0  0  0  0  4           0  0  0
    0.0000    0.0000    0.0000 C   0  0  0  0  0  4           0  0  0
   -0.6166    0.0000    1.2550 C   0  0  0  0  0  4           0  0  0
   -4.2104   -0.0337   -2.1473 C   0  0  0  0  0  4           0  0  0
   -4.2389    0.0348    0.1470 C   0  0  0  0  0  4           0  0  0
   -2.1847   -0.0091   -1.0980 C   0  0  0  0  0  4           0  0  0
   -8.0477   -1.6451    1.2796 C   0  0  0  0  0  4           0  0  0
  -12.3190    0.4094    2.4031 C   0  0  0  0  0  4           0  0  0
   -2.8197    0.0123    0.1589 C   0  0  0  0  0  4           0  0  0
  -12.6412    1.7465    2.6570 C   0  0  0  0  0  4           0  0  0
  -14.6702    1.5154    1.3496 C   0  0  0  0  0  4           0  0  0
   -0.7927   -0.0125   -1.1550 C   0  0  0  0  0  4           0  0  0
   -2.0142    0.0046    1.3272 C   0  0  0  0  0  4           0  0  0
  -13.1782   -0.3713    1.6177 C   0  0  0  0  0  4           0  0  0
  -14.3490    0.1844    1.0930 C   0  0  0  0  0  4           0  0  0
  -10.6672   -1.3979    2.7995 C   0  0  0  0  0  4           0  0  0
    1.9787    0.0000   -1.2901 C   0  0  0  0  0  4           0  0  0
    9.5265   -1.2179    1.3829 C   0  0  0  0  0  4           0  0  0
   -0.4295   -0.0023    3.6076 C   0  0  0  0  0  4           0  0  0
    4.0357   -1.2098   -0.3568 C   0  0  0  0  0  4           0  0  0
    5.9375    0.0125    0.5252 C   0  0  0  0  0  4           0  0  0
    5.9518   -2.4090    0.4649 C   0  0  0  0  0  4           0  0  0
   -9.3572   -1.6429    3.5137 C   0  0  0  0  0  4           0  0  0
    8.0027   -1.2115    1.3291 C   0  0  1  0  0  4           0  0  0
    3.4928   -0.0000   -1.1205 C   0  0  0  0  0  4           0  0  0
    7.4621    0.0575    0.6573 C   0  0  0  0  0  4           0  0  0
    7.4761   -2.4445    0.5905 C   0  0  0  0  0  4           0  0  0
  1 13  1  0     0  0
  1 14  1  0     0  0
  2 15  1  0     0  0
  3 16  1  0     0  0
  3 31  1  0     0  0
  4 17  1  0     0  0
  4 33  1  0     0  0
  5 30  2  0     0  0
  6 32  1  0     0  0
  7 13  2  0     0  0
  7 21  1  0     0  0
  8 18  1  0     0  0
  8 19  2  0     0  0
  9 18  2  0     0  0
  9 20  1  0     0  0
 10 13  1  0     0  0
 10 19  1  0     0  0
 11 22  1  0     0  0
 11 30  1  0     0  0
 12 34  1  0     0  0
 12 35  1  0     0  0
 12 36  1  0     0  0
 14 21  2  0     0  0
 14 37  1  0     0  0
 15 24  2  0     0  0
 15 25  1  0     0  0
 16 17  2  0     0  0
 16 26  1  0     0  0
 17 27  1  0     0  0
 19 23  1  0     0  0
 20 23  1  0     0  0
 20 26  2  0     0  0
 22 24  1  0     0  0
 22 28  2  0     0  0
 23 27  2  0     0  0
 25 29  2  0     0  0
 28 29  1  0     0  0
 30 37  1  0     0  0
 31 39  1  0     0  0
 32 38  1  0     0  0
 34 39  1  0     0  0
 35 40  1  0     0  0
 36 41  1  0     0  0
 38 40  1  0     0  0
 38 41  1  0     0  0
M  END
> <standard_type>
pIC50

> <# Confs.>
25

> <canonical_smiles>
FC1=CC(NC(CC2=CN=C(NC(C3=C4)=NC=NC3=CC(OCCCN5CCC(CO)CC5)=C4OC)S2)=O)=CC=C1

> <standard_relation>
=

> <Publication_ID>
nan

> <predicted_activity_value>
8.013228265733755

> <actual_activity_value>
8.154901959985743

> <Compound>
3

> <standard_units>
nM

> hash
6019588431572444200

$$$$
2
XXILIB    08252103493D 0   0.00000     0.00000

 41 45  0     1  0            999 V2000
   -6.8804   -0.4089    3.1470 S   0  0  0  0  0  2           0  0  0
  -14.1166    3.5667    2.3753 F   0  0  0  0  0  1           0  0  0
    1.3667    0.0000    0.0000 O   0  0  0  0  0  2           0  0  0
    0.2177   -0.0024    2.3373 O   0  0  0  0  0  2           0  0  0
  -11.2240   -2.2799    2.1469 O   0  0  0  0  0  2           0  0  0
    4.9476    0.5787   -8.3719 O   0  0  0  0  0  2           0  0  0
   -6.8794   -1.1959    0.6986 N   0  0  0  0  0  3           0  0  0
   -4.9314   -0.0106   -1.0184 N   0  0  0  0  0  3           0  0  0
   -2.8735   -0.0286   -2.2467 N   0  0  0  0  0  3           0  0  0
   -4.9501    0.0475    1.3655 N   0  0  0  0  0  3           0  0  0
  -11.1290   -0.1021    2.9547 N   0  0  0  0  0  3           0  0  0
    3.9770   -0.6245   -3.4188 N   0  0  1  0  0  3           0  0  0
   -6.1570   -0.5277    1.5781 C   0  0  0  0  0  4           0  0  0
   -8.2256   -1.3195    2.6072 C   0  0  0  0  0  4           0  0  0
  -13.8122    2.2849    2.1284 C   0  0  0  0  0  4           0  0  0
    0.0000    0.0000    0.0000 C   0  0  0  0  0  4           0  0  0
   -0.6166    0.0000    1.2550 C   0  0  0  0  0  4           0  0  0
   -4.2104   -0.0337   -2.1473 C   0  0  0  0  0  4           0  0  0
   -4.2389    0.0348    0.1470 C   0  0  0  0  0  4           0  0  0
   -2.1847   -0.0091   -1.0980 C   0  0  0  0  0  4           0  0  0
   -8.0477   -1.6451    1.2796 C   0  0  0  0  0  4           0  0  0
  -12.3190    0.4094    2.4031 C   0  0  0  0  0  4           0  0  0
   -2.8197    0.0123    0.1589 C   0  0  0  0  0  4           0  0  0
  -12.6412    1.7465    2.6570 C   0  0  0  0  0  4           0  0  0
  -14.6702    1.5154    1.3496 C   0  0  0  0  0  4           0  0  0
   -0.7927   -0.0125   -1.1550 C   0  0  0  0  0  4           0  0  0
   -2.0142    0.0046    1.3272 C   0  0  0  0  0  4           0  0  0
  -13.1782   -0.3713    1.6177 C   0  0  0  0  0  4           0  0  0
  -14.3490    0.1844    1.0930 C   0  0  0  0  0  4           0  0  0
  -10.6672   -1.3979    2.7995 C   0  0  0  0  0  4           0  0  0
    1.9787   -0.6451   -1.1173 C   0  0  0  0  0  4           0  0  0
    4.2973    1.2636   -7.3093 C   0  0  0  0  0  4           0  0  0
   -0.4295   -0.0023    3.6076 C   0  0  0  0  0  4           0  0  0
    4.2691   -1.2196   -2.1124 C   0  0  0  0  0  4           0  0  0
    4.3204    0.8067   -3.4465 C   0  0  0  0  0  4           0  0  0
    4.6961   -1.3537   -4.4755 C   0  0  0  0  0  4           0  0  0
   -9.3572   -1.6429    3.5137 C   0  0  0  0  0  4           0  0  0
    4.6916    0.6999   -5.9486 C   0  0  1  0  0  4           0  0  0
    3.4928   -0.5602   -0.9704 C   0  0  0  0  0  4           0  0  0
    3.9902    1.4386   -4.8013 C   0  0  0  0  0  4           0  0  0
    4.3743   -0.7953   -5.8629 C   0  0  0  0  0  4           0  0  0
  1 13  1  0     0  0
  1 14  1  0     0  0
  2 15  1  0     0  0
  3 16  1  0     0  0
  3 31  1  0     0  0
  4 17  1  0     0  0
  4 33  1  0     0  0
  5 30  2  0     0  0
  6 32  1  0     0  0
  7 13  2  0     0  0
  7 21  1  0     0  0
  8 18  1  0     0  0
  8 19  2  0     0  0
  9 18  2  0     0  0
  9 20  1  0     0  0
 10 13  1  0     0  0
 10 19  1  0     0  0
 11 22  1  0     0  0
 11 30  1  0     0  0
 12 34  1  0     0  0
 12 35  1  0     0  0
 12 36  1  0     0  0
 14 21  2  0     0  0
 14 37  1  0     0  0
 15 24  2  0     0  0
 15 25  1  0     0  0
 16 17  2  0     0  0
 16 26  1  0     0  0
 17 27  1  0     0  0
 19 23  1  0     0  0
 20 23  1  0     0  0
 20 26  2  0     0  0
 22 24  1  0     0  0
 22 28  2  0     0  0
 23 27  2  0     0  0
 25 29  2  0     0  0
 28 29  1  0     0  0
 30 37  1  0     0  0
 31 39  1  0     0  0
 32 38  1  0     0  0
 34 39  1  0     0  0
 35 40  1  0     0  0
 36 41  1  0     0  0
 38 40  1  0     0  0
 38 41  1  0     0  0
M  END
> <standard_type>
pIC50

> <# Confs.>
25

> <canonical_smiles>
FC1=CC(NC(CC2=CN=C(NC(C3=C4)=NC=NC3=CC(OCCCN5CCC(CO)CC5)=C4OC)S2)=O)=CC=C1

> <standard_relation>
=

> <Publication_ID>
nan

> <predicted_activity_value>
8.013228265733755

> <actual_activity_value>
8.154901959985743

> <Compound>
3

> <standard_units>
nM

> hash
6019588431572444200

$$$$
2
XXILIB    08252103493D 0   0.00000     0.00000

 41 45  0     1  0            999 V2000
   -6.8804   -0.4089    3.1470 S   0  0  0  0  0  2           0  0  0
   -7.8365   -8.0699    6.2468 F   0  0  0  0  0  1           0  0  0
    1.3667   -0.0000    0.0000 O   0  0  0  0  0  2           0  0  0
    0.2177   -0.0024    2.3373 O   0  0  0  0  0  2           0  0  0
  -10.5800   -3.4586    2.5304 O   0  0  0  0  0  2           0  0  0
    4.9476    7.5396   -3.6848 O   0  0  0  0  0  2           0  0  0
   -6.8794   -1.1959    0.6986 N   0  0  0  0  0  3           0  0  0
   -4.9314   -0.0106   -1.0184 N   0  0  0  0  0  3           0  0  0
   -2.8735   -0.0286   -2.2467 N   0  0  0  0  0  3           0  0  0
   -4.9501    0.0475    1.3655 N   0  0  0  0  0  3           0  0  0
   -9.0601   -3.9301    4.2251 N   0  0  0  0  0  3           0  0  0
    3.9770    2.6485   -2.2502 N   0  0  1  0  0  3           0  0  0
   -6.1570   -0.5277    1.5781 C   0  0  0  0  0  4           0  0  0
   -8.2256   -1.3195    2.6072 C   0  0  0  0  0  4           0  0  0
   -8.5722   -7.4075    5.3430 C   0  0  0  0  0  4           0  0  0
    0.0000    0.0000    0.0000 C   0  0  0  0  0  4           0  0  0
   -0.6166    0.0000    1.2550 C   0  0  0  0  0  4           0  0  0
   -4.2104   -0.0337   -2.1473 C   0  0  0  0  0  4           0  0  0
   -4.2389    0.0348    0.1470 C   0  0  0  0  0  4           0  0  0
   -2.1847   -0.0091   -1.0980 C   0  0  0  0  0  4           0  0  0
   -8.0477   -1.6451    1.2796 C   0  0  0  0  0  4           0  0  0
   -9.2126   -5.3277    4.3006 C   0  0  0  0  0  4           0  0  0
   -2.8197    0.0123    0.1589 C   0  0  0  0  0  4           0  0  0
   -8.4480   -6.0237    5.2423 C   0  0  0  0  0  4           0  0  0
   -9.4457   -8.1130    4.5220 C   0  0  0  0  0  4           0  0  0
   -0.7927   -0.0125   -1.1550 C   0  0  0  0  0  4           0  0  0
   -2.0142    0.0046    1.3272 C   0  0  0  0  0  4           0  0  0
  -10.0961   -6.0320    3.4713 C   0  0  0  0  0  4           0  0  0
  -10.2105   -7.4208    3.5858 C   0  0  0  0  0  4           0  0  0
   -9.7388   -3.0971    3.3523 C   0  0  0  0  0  4           0  0  0
    1.9787    0.6451   -1.1173 C   0  0  0  0  0  4           0  0  0
    4.2973    6.9619   -2.5604 C   0  0  0  0  0  4           0  0  0
   -0.4295   -0.0023    3.6076 C   0  0  0  0  0  4           0  0  0
    4.2691    1.2196   -2.1124 C   0  0  0  0  0  4           0  0  0
    4.3204    3.3881   -1.0246 C   0  0  0  0  0  4           0  0  0
    4.6961    3.1991   -3.4101 C   0  0  0  0  0  4           0  0  0
   -9.3572   -1.6429    3.5137 C   0  0  0  0  0  4           0  0  0
    4.6916    5.5016   -2.3682 C   0  0  1  0  0  4           0  0  0
    3.4928    0.5602   -0.9704 C   0  0  0  0  0  4           0  0  0
    3.9902    4.8774   -1.1548 C   0  0  0  0  0  4           0  0  0
    4.3743    4.6798   -3.6202 C   0  0  0  0  0  4           0  0  0
  1 13  1  0     0  0
  1 14  1  0     0  0
  2 15  1  0     0  0
  3 16  1  0     0  0
  3 31  1  0     0  0
  4 17  1  0     0  0
  4 33  1  0     0  0
  5 30  2  0     0  0
  6 32  1  0     0  0
  7 13  2  0     0  0
  7 21  1  0     0  0
  8 18  1  0     0  0
  8 19  2  0     0  0
  9 18  2  0     0  0
  9 20  1  0     0  0
 10 13  1  0     0  0
 10 19  1  0     0  0
 11 22  1  0     0  0
 11 30  1  0     0  0
 12 34  1  0     0  0
 12 35  1  0     0  0
 12 36  1  0     0  0
 14 21  2  0     0  0
 14 37  1  0     0  0
 15 24  2  0     0  0
 15 25  1  0     0  0
 16 17  2  0     0  0
 16 26  1  0     0  0
 17 27  1  0     0  0
 19 23  1  0     0  0
 20 23  1  0     0  0
 20 26  2  0     0  0
 22 24  1  0     0  0
 22 28  2  0     0  0
 23 27  2  0     0  0
 25 29  2  0     0  0
 28 29  1  0     0  0
 30 37  1  0     0  0
 31 39  1  0     0  0
 32 38  1  0     0  0
 34 39  1  0     0  0
 35 40  1  0     0  0
 36 41  1  0     0  0
 38 40  1  0     0  0
 38 41  1  0     0  0
M  END
> <standard_type>
pIC50

> <# Confs.>
25

> <canonical_smiles>
FC1=CC(NC(CC2=CN=C(NC(C3=C4)=NC=NC3=CC(OCCCN5CCC(CO)CC5)=C4OC)S2)=O)=CC=C1

> <standard_relation>
=

> <Publication_ID>
nan

> <predicted_activity_value>
8.013228265733755

> <actual_activity_value>
8.154901959985743

> <Compound>
3

> <standard_units>
nM

> hash
6019588431572444200

$$$$
19
XXILIB    08252103493D 0   0.00000     0.00000

 35 39  0     1  0            999 V2000
    1.7144    0.0000   -2.2911 O   0  0  0  0  0  2           0  0  0
   -3.8225   -0.0421   -4.5852 O   0  0  0  0  0  2           0  0  0
   -1.2782   -1.4069   -5.6248 O   0  0  0  0  0  2           0  0  0
   -2.0475   -0.0071    0.6334 N   0  0  0  0  0  3           0  0  0
   -0.7770   -0.0000    1.1066 N   0  0  0  0  0  3           0  0  0
    7.8299   -0.0799   -0.4542 N   0  0  2  0  0  3           0  0  0
    1.3878    0.0000    0.0000 N   0  0  0  0  0  3           0  0  0
   -2.1944   -0.0206   -2.9547 N   0  0  1  0  0  3           0  0  0
   10.6518    0.0929   -0.0614 N   0  0  2  0  0  3           0  0  0
    0.0000    0.0000    0.0000 C   0  0  0  0  0  4           0  0  0
   -2.0797   -0.0078   -0.7113 C   0  0  0  0  0  4           0  0  0
    6.4589   -0.0503   -0.6135 C   0  0  0  0  0  4           0  0  0
   -0.7943   -0.0032   -1.1543 C   0  0  0  0  0  4           0  0  0
    3.6246    0.0010   -0.9384 C   0  0  0  0  0  4           0  0  0
   -2.0559    0.6582   -6.5990 C   0  0  0  0  0  4           0  0  0
    5.8339   -0.5788   -1.7577 C   0  0  0  0  0  4           0  0  0
    5.6099    0.5090    0.3593 C   0  0  0  0  0  4           0  0  0
    4.4427   -0.5566   -1.9222 C   0  0  0  0  0  4           0  0  0
    4.2166    0.5374    0.2058 C   0  0  0  0  0  4           0  0  0
   -1.8116    2.0241   -6.8102 C   0  0  0  0  0  4           0  0  0
   -2.7571   -0.0590   -7.5788 C   0  0  0  0  0  4           0  0  0
   -2.2644    2.6567   -7.9692 C   0  0  0  0  0  4           0  0  0
   -3.2098    0.5754   -8.7371 C   0  0  0  0  0  4           0  0  0
   -2.9637    1.9326   -8.9322 C   0  0  0  0  0  4           0  0  0
    2.1565    0.0000   -1.1440 C   0  0  0  0  0  4           0  0  0
   -2.6286   -0.0316   -4.2693 C   0  0  0  0  0  4           0  0  0
   -1.5663   -0.0437   -5.3574 C   0  0  1  0  0  4           0  0  0
    0.0673   -1.6128   -6.0334 C   0  0  0  0  0  4           0  0  0
   -3.0974   -0.0199   -1.7568 C   0  0  0  0  0  4           0  0  0
   -0.7336   -0.0112   -2.6184 C   0  0  0  0  0  4           0  0  0
    8.3887   -0.1602    0.8996 C   0  0  0  0  0  4           0  0  0
    8.6796    0.5287   -1.4838 C   0  0  0  0  0  4           0  0  0
    9.8258   -0.6835    0.8700 C   0  0  0  0  0  4           0  0  0
   10.1050   -0.0226   -1.4178 C   0  0  0  0  0  4           0  0  0
   12.0384   -0.3704   -0.0257 C   0  0  0  0  0  4           0  0  0
  1 25  2  0     0  0
  2 26  2  0     0  0
  3 27  1  0     0  0
  3 28  1  0     0  0
  4  5  1  0     0  0
  4 11  1  0     0  0
  5 10  2  0     0  0
  6 12  1  0     0  0
  6 31  1  0     0  0
  6 32  1  0     0  0
  7 10  1  0     0  0
  7 25  1  0     0  0
  8 26  1  0     0  0
  8 29  1  0     0  0
  8 30  1  0     0  0
  9 33  1  0     0  0
  9 34  1  0     0  0
  9 35  1  0     0  0
 10 13  1  0     0  0
 11 13  2  0     0  0
 11 29  1  0     0  0
 12 16  2  0     0  0
 12 17  1  0     0  0
 13 30  1  0     0  0
 14 18  2  0     0  0
 14 19  1  0     0  0
 14 25  1  0     0  0
 15 20  2  0     0  0
 15 21  1  0     0  0
 15 27  1  0     0  0
 16 18  1  0     0  0
 17 19  2  0     0  0
 20 22  1  0     0  0
 21 23  2  0     0  0
 22 24  2  0     0  0
 23 24  1  0     0  0
 26 27  1  0     0  0
 31 33  1  0     0  0
 32 34  1  0     0  0
M  END
> <standard_type>
pIC50

> <# Confs.>
25

> <canonical_smiles>
CN(CC1)CCN1C2=CC=C(C(NC3=NNC4=C3CN(C([C@H](C5=CC=CC=C5)OC)=O)C4)=O)C=C2

> <standard_relation>
=

> <Publication_ID>
nan

> <predicted_activity_value>
6.2839966563652006

> <actual_activity_value>
6.200659450546418

> <Compound>
20

> <standard_units>
nM

> hash
7939965660355082475

$$$$
19
XXILIB    08252103493D 0   0.00000     0.00000

 35 39  0     1  0            999 V2000
    1.7144   -0.0000   -2.2911 O   0  0  0  0  0  2           0  0  0
   -3.8225   -0.0421   -4.5852 O   0  0  0  0  0  2           0  0  0
   -1.2782   -1.4069   -5.6248 O   0  0  0  0  0  2           0  0  0
   -2.0475   -0.0071    0.6334 N   0  0  0  0  0  3           0  0  0
   -0.7770   -0.0000    1.1066 N   0  0  0  0  0  3           0  0  0
    7.8333    0.0386   -0.4788 N   0  0  2  0  0  3           0  0  0
    1.3878   -0.0000   -0.0000 N   0  0  0  0  0  3           0  0  0
   -2.1944   -0.0206   -2.9547 N   0  0  1  0  0  3           0  0  0
   10.6359    0.1430    0.0519 N   0  0  2  0  0  3           0  0  0
    0.0000    0.0000    0.0000 C   0  0  0  0  0  4           0  0  0
   -2.0797   -0.0078   -0.7113 C   0  0  0  0  0  4           0  0  0
    6.4607    0.0294   -0.6269 C   0  0  0  0  0  4           0  0  0
   -0.7943   -0.0032   -1.1543 C   0  0  0  0  0  4           0  0  0
    3.6246    0.0010   -0.9384 C   0  0  0  0  0  4           0  0  0
   -2.0559    0.6582   -6.5990 C   0  0  0  0  0  4           0  0  0
    5.8344    0.5652   -1.7671 C   0  0  0  0  0  4           0  0  0
    5.6115   -0.5167    0.3530 C   0  0  0  0  0  4           0  0  0
    4.4424    0.5535   -1.9253 C   0  0  0  0  0  4           0  0  0
    4.2172   -0.5338    0.2063 C   0  0  0  0  0  4           0  0  0
   -1.8116    2.0241   -6.8102 C   0  0  0  0  0  4           0  0  0
   -2.7571   -0.0590   -7.5788 C   0  0  0  0  0  4           0  0  0
   -2.2644    2.6567   -7.9692 C   0  0  0  0  0  4           0  0  0
   -3.2098    0.5754   -8.7371 C   0  0  0  0  0  4           0  0  0
   -2.9637    1.9326   -8.9322 C   0  0  0  0  0  4           0  0  0
    2.1565    0.0000   -1.1440 C   0  0  0  0  0  4           0  0  0
   -2.6286   -0.0316   -4.2693 C   0  0  0  0  0  4           0  0  0
   -1.5663   -0.0437   -5.3574 C   0  0  1  0  0  4           0  0  0
    0.0673   -1.6128   -6.0334 C   0  0  0  0  0  4           0  0  0
   -3.0974   -0.0199   -1.7568 C   0  0  0  0  0  4           0  0  0
   -0.7336   -0.0112   -2.6184 C   0  0  0  0  0  4           0  0  0
    8.4740   -1.0303    0.2946 C   0  0  0  0  0  4           0  0  0
    8.5492    1.3168   -0.5568 C   0  0  0  0  0  4           0  0  0
    9.9566   -1.1525   -0.0616 C   0  0  0  0  0  4           0  0  0
   10.0288    1.1003   -0.8793 C   0  0  0  0  0  4           0  0  0
   12.0654   -0.0019   -0.2203 C   0  0  0  0  0  4           0  0  0
  1 25  2  0     0  0
  2 26  2  0     0  0
  3 27  1  0     0  0
  3 28  1  0     0  0
  4  5  1  0     0  0
  4 11  1  0     0  0
  5 10  2  0     0  0
  6 12  1  0     0  0
  6 31  1  0     0  0
  6 32  1  0     0  0
  7 10  1  0     0  0
  7 25  1  0     0  0
  8 26  1  0     0  0
  8 29  1  0     0  0
  8 30  1  0     0  0
  9 33  1  0     0  0
  9 34  1  0     0  0
  9 35  1  0     0  0
 10 13  1  0     0  0
 11 13  2  0     0  0
 11 29  1  0     0  0
 12 16  2  0     0  0
 12 17  1  0     0  0
 13 30  1  0     0  0
 14 18  2  0     0  0
 14 19  1  0     0  0
 14 25  1  0     0  0
 15 20  2  0     0  0
 15 21  1  0     0  0
 15 27  1  0     0  0
 16 18  1  0     0  0
 17 19  2  0     0  0
 20 22  1  0     0  0
 21 23  2  0     0  0
 22 24  2  0     0  0
 23 24  1  0     0  0
 26 27  1  0     0  0
 31 33  1  0     0  0
 32 34  1  0     0  0
M  END
> <standard_type>
pIC50

> <# Confs.>
25

> <canonical_smiles>
CN(CC1)CCN1C2=CC=C(C(NC3=NNC4=C3CN(C([C@H](C5=CC=CC=C5)OC)=O)C4)=O)C=C2

> <standard_relation>
=

> <Publication_ID>
nan

> <predicted_activity_value>
6.2839966563652006

> <actual_activity_value>
6.200659450546418

> <Compound>
20

> <standard_units>
nM

> hash
7939965660355082475

$$$$
19
XXILIB    08252103493D 0   0.00000     0.00000

 35 39  0     1  0            999 V2000
    1.7144    0.0000   -2.2911 O   0  0  0  0  0  2           0  0  0
   -1.8577   -0.0317   -5.2343 O   0  0  0  0  0  2           0  0  0
   -4.5275    1.3299   -4.5744 O   0  0  0  0  0  2           0  0  0
   -2.0475   -0.0071    0.6334 N   0  0  0  0  0  3           0  0  0
   -0.7770   -0.0000    1.1066 N   0  0  0  0  0  3           0  0  0
    7.8299   -0.0799   -0.4542 N   0  0  2  0  0  3           0  0  0
    1.3878    0.0000    0.0000 N   0  0  0  0  0  3           0  0  0
   -2.1944   -0.0206   -2.9547 N   0  0  1  0  0  3           0  0  0
   10.6518    0.0929   -0.0614 N   0  0  2  0  0  3           0  0  0
    0.0000    0.0000    0.0000 C   0  0  0  0  0  4           0  0  0
   -2.0797   -0.0078   -0.7113 C   0  0  0  0  0  4           0  0  0
    6.4589   -0.0503   -0.6135 C   0  0  0  0  0  4           0  0  0
   -0.7943   -0.0032   -1.1543 C   0  0  0  0  0  4           0  0  0
    3.6246    0.0010   -0.9384 C   0  0  0  0  0  4           0  0  0
   -4.4727   -0.7535   -5.7889 C   0  0  0  0  0  4           0  0  0
    5.8339   -0.5788   -1.7577 C   0  0  0  0  0  4           0  0  0
    5.6099    0.5090    0.3593 C   0  0  0  0  0  4           0  0  0
    4.4427   -0.5566   -1.9222 C   0  0  0  0  0  4           0  0  0
    4.2166    0.5374    0.2058 C   0  0  0  0  0  4           0  0  0
   -4.7880   -2.1212   -5.7924 C   0  0  0  0  0  4           0  0  0
   -4.4966   -0.0546   -7.0043 C   0  0  0  0  0  4           0  0  0
   -5.1114   -2.7735   -6.9835 C   0  0  0  0  0  4           0  0  0
   -4.8197   -0.7086   -8.1946 C   0  0  0  0  0  4           0  0  0
   -5.1268   -2.0674   -8.1843 C   0  0  0  0  0  4           0  0  0
    2.1565    0.0000   -1.1440 C   0  0  0  0  0  4           0  0  0
   -2.6286   -0.0316   -4.2693 C   0  0  0  0  0  4           0  0  0
   -4.1300   -0.0306   -4.5107 C   0  0  1  0  0  4           0  0  0
   -5.8527    1.5363   -4.1042 C   0  0  0  0  0  4           0  0  0
   -3.0974   -0.0199   -1.7568 C   0  0  0  0  0  4           0  0  0
   -0.7336   -0.0112   -2.6184 C   0  0  0  0  0  4           0  0  0
    8.3887   -0.1602    0.8996 C   0  0  0  0  0  4           0  0  0
    8.6796    0.5287   -1.4838 C   0  0  0  0  0  4           0  0  0
    9.8258   -0.6835    0.8700 C   0  0  0  0  0  4           0  0  0
   10.1050   -0.0226   -1.4178 C   0  0  0  0  0  4           0  0  0
   12.0384   -0.3704   -0.0257 C   0  0  0  0  0  4           0  0  0
  1 25  2  0     0  0
  2 26  2  0     0  0
  3 27  1  0     0  0
  3 28  1  0     0  0
  4  5  1  0     0  0
  4 11  1  0     0  0
  5 10  2  0     0  0
  6 12  1  0     0  0
  6 31  1  0     0  0
  6 32  1  0     0  0
  7 10  1  0     0  0
  7 25  1  0     0  0
  8 26  1  0     0  0
  8 29  1  0     0  0
  8 30  1  0     0  0
  9 33  1  0     0  0
  9 34  1  0     0  0
  9 35  1  0     0  0
 10 13  1  0     0  0
 11 13  2  0     0  0
 11 29  1  0     0  0
 12 16  2  0     0  0
 12 17  1  0     0  0
 13 30  1  0     0  0
 14 18  2  0     0  0
 14 19  1  0     0  0
 14 25  1  0     0  0
 15 20  2  0     0  0
 15 21  1  0     0  0
 15 27  1  0     0  0
 16 18  1  0     0  0
 17 19  2  0     0  0
 20 22  1  0     0  0
 21 23  2  0     0  0
 22 24  2  0     0  0
 23 24  1  0     0  0
 26 27  1  0     0  0
 31 33  1  0     0  0
 32 34  1  0     0  0
M  END
> <standard_type>
pIC50

> <# Confs.>
25

> <canonical_smiles>
CN(CC1)CCN1C2=CC=C(C(NC3=NNC4=C3CN(C([C@H](C5=CC=CC=C5)OC)=O)C4)=O)C=C2

> <standard_relation>
=

> <Publication_ID>
nan

> <predicted_activity_value>
6.2839966563652006

> <actual_activity_value>
6.200659450546418

> <Compound>
20

> <standard_units>
nM

> hash
7939965660355082475

$$$$
19
XXILIB    08252103493D 0   0.00000     0.00000

 35 39  0     1  0            999 V2000
    1.7144   -0.0000   -2.2911 O   0  0  0  0  0  2           0  0  0
   -1.8577   -0.0317   -5.2343 O   0  0  0  0  0  2           0  0  0
   -4.5275    1.3299   -4.5744 O   0  0  0  0  0  2           0  0  0
   -2.0475   -0.0071    0.6334 N   0  0  0  0  0  3           0  0  0
   -0.7770   -0.0000    1.1066 N   0  0  0  0  0  3           0  0  0
    7.8333    0.0386   -0.4788 N   0  0  2  0  0  3           0  0  0
    1.3878   -0.0000   -0.0000 N   0  0  0  0  0  3           0  0  0
   -2.1944   -0.0206   -2.9547 N   0  0  1  0  0  3           0  0  0
   10.6359    0.1430    0.0519 N   0  0  2  0  0  3           0  0  0
    0.0000    0.0000    0.0000 C   0  0  0  0  0  4           0  0  0
   -2.0797   -0.0078   -0.7113 C   0  0  0  0  0  4           0  0  0
    6.4607    0.0294   -0.6269 C   0  0  0  0  0  4           0  0  0
   -0.7943   -0.0032   -1.1543 C   0  0  0  0  0  4           0  0  0
    3.6246    0.0010   -0.9384 C   0  0  0  0  0  4           0  0  0
   -4.4727   -0.7535   -5.7889 C   0  0  0  0  0  4           0  0  0
    5.8344    0.5652   -1.7671 C   0  0  0  0  0  4           0  0  0
    5.6115   -0.5167    0.3530 C   0  0  0  0  0  4           0  0  0
    4.4424    0.5535   -1.9253 C   0  0  0  0  0  4           0  0  0
    4.2172   -0.5338    0.2063 C   0  0  0  0  0  4           0  0  0
   -4.7880   -2.1212   -5.7924 C   0  0  0  0  0  4           0  0  0
   -4.4966   -0.0546   -7.0043 C   0  0  0  0  0  4           0  0  0
   -5.1114   -2.7735   -6.9835 C   0  0  0  0  0  4           0  0  0
   -4.8197   -0.7086   -8.1946 C   0  0  0  0  0  4           0  0  0
   -5.1268   -2.0674   -8.1843 C   0  0  0  0  0  4           0  0  0
    2.1565    0.0000   -1.1440 C   0  0  0  0  0  4           0  0  0
   -2.6286   -0.0316   -4.2693 C   0  0  0  0  0  4           0  0  0
   -4.1300   -0.0306   -4.5107 C   0  0  1  0  0  4           0  0  0
   -5.8527    1.5363   -4.1042 C   0  0  0  0  0  4           0  0  0
   -3.0974   -0.0199   -1.7568 C   0  0  0  0  0  4           0  0  0
   -0.7336   -0.0112   -2.6184 C   0  0  0  0  0  4           0  0  0
    8.4740   -1.0303    0.2946 C   0  0  0  0  0  4           0  0  0
    8.5492    1.3168   -0.5568 C   0  0  0  0  0  4           0  0  0
    9.9566   -1.1525   -0.0616 C   0  0  0  0  0  4           0  0  0
   10.0288    1.1003   -0.8793 C   0  0  0  0  0  4           0  0  0
   12.0654   -0.0019   -0.2203 C   0  0  0  0  0  4           0  0  0
  1 25  2  0     0  0
  2 26  2  0     0  0
  3 27  1  0     0  0
  3 28  1  0     0  0
  4  5  1  0     0  0
  4 11  1  0     0  0
  5 10  2  0     0  0
  6 12  1  0     0  0
  6 31  1  0     0  0
  6 32  1  0     0  0
  7 10  1  0     0  0
  7 25  1  0     0  0
  8 26  1  0     0  0
  8 29  1  0     0  0
  8 30  1  0     0  0
  9 33  1  0     0  0
  9 34  1  0     0  0
  9 35  1  0     0  0
 10 13  1  0     0  0
 11 13  2  0     0  0
 11 29  1  0     0  0
 12 16  2  0     0  0
 12 17  1  0     0  0
 13 30  1  0     0  0
 14 18  2  0     0  0
 14 19  1  0     0  0
 14 25  1  0     0  0
 15 20  2  0     0  0
 15 21  1  0     0  0
 15 27  1  0     0  0
 16 18  1  0     0  0
 17 19  2  0     0  0
 20 22  1  0     0  0
 21 23  2  0     0  0
 22 24  2  0     0  0
 23 24  1  0     0  0
 26 27  1  0     0  0
 31 33  1  0     0  0
 32 34  1  0     0  0
M  END
> <standard_type>
pIC50

> <# Confs.>
25

> <canonical_smiles>
CN(CC1)CCN1C2=CC=C(C(NC3=NNC4=C3CN(C([C@H](C5=CC=CC=C5)OC)=O)C4)=O)C=C2

> <standard_relation>
=

> <Publication_ID>
nan

> <predicted_activity_value>
6.2839966563652006

> <actual_activity_value>
6.200659450546418

> <Compound>
20

> <standard_units>
nM

> hash
7939965660355082475

$$$$
19
XXILIB    08252103493D 0   0.00000     0.00000

 35 39  0     1  0            999 V2000
    1.7144    0.0000   -2.2911 O   0  0  0  0  0  2           0  0  0
   -1.8577   -0.0317   -5.2343 O   0  0  0  0  0  2           0  0  0
   -4.3409    0.6500   -5.7376 O   0  0  0  0  0  2           0  0  0
   -2.0475   -0.0071    0.6334 N   0  0  0  0  0  3           0  0  0
   -0.7770    0.0000    1.1066 N   0  0  0  0  0  3           0  0  0
    7.8299   -0.0799   -0.4542 N   0  0  2  0  0  3           0  0  0
    1.3878    0.0000    0.0000 N   0  0  0  0  0  3           0  0  0
   -2.1944   -0.0206   -2.9547 N   0  0  1  0  0  3           0  0  0
   10.6518    0.0929   -0.0614 N   0  0  2  0  0  3           0  0  0
    0.0000    0.0000    0.0000 C   0  0  0  0  0  4           0  0  0
   -2.0797   -0.0078   -0.7113 C   0  0  0  0  0  4           0  0  0
    6.4589   -0.0503   -0.6135 C   0  0  0  0  0  4           0  0  0
   -0.7943   -0.0032   -1.1543 C   0  0  0  0  0  4           0  0  0
    3.6246    0.0010   -0.9384 C   0  0  0  0  0  4           0  0  0
   -4.6685   -1.4376   -4.5744 C   0  0  0  0  0  4           0  0  0
    5.8339   -0.5788   -1.7577 C   0  0  0  0  0  4           0  0  0
    5.6099    0.5090    0.3593 C   0  0  0  0  0  4           0  0  0
    4.4427   -0.5566   -1.9222 C   0  0  0  0  0  4           0  0  0
    4.2166    0.5374    0.2058 C   0  0  0  0  0  4           0  0  0
   -3.8628   -2.5099   -4.9879 C   0  0  0  0  0  4           0  0  0
   -5.9947   -1.6978   -4.2007 C   0  0  0  0  0  4           0  0  0
   -4.3745   -3.8079   -5.0331 C   0  0  0  0  0  4           0  0  0
   -6.5051   -2.9964   -4.2471 C   0  0  0  0  0  4           0  0  0
   -5.6954   -4.0510   -4.6631 C   0  0  0  0  0  4           0  0  0
    2.1565    0.0000   -1.1440 C   0  0  0  0  0  4           0  0  0
   -2.6286   -0.0316   -4.2693 C   0  0  0  0  0  4           0  0  0
   -4.1300   -0.0306   -4.5107 C   0  0  1  0  0  4           0  0  0
   -4.5041    2.0514   -5.5660 C   0  0  0  0  0  4           0  0  0
   -3.0974   -0.0199   -1.7568 C   0  0  0  0  0  4           0  0  0
   -0.7336   -0.0112   -2.6184 C   0  0  0  0  0  4           0  0  0
    8.3887   -0.1602    0.8996 C   0  0  0  0  0  4           0  0  0
    8.6796    0.5287   -1.4838 C   0  0  0  0  0  4           0  0  0
    9.8258   -0.6835    0.8700 C   0  0  0  0  0  4           0  0  0
   10.1050   -0.0226   -1.4178 C   0  0  0  0  0  4           0  0  0
   12.0384   -0.3704   -0.0257 C   0  0  0  0  0  4           0  0  0
  1 25  2  0     0  0
  2 26  2  0     0  0
  3 27  1  0     0  0
  3 28  1  0     0  0
  4  5  1  0     0  0
  4 11  1  0     0  0
  5 10  2  0     0  0
  6 12  1  0     0  0
  6 31  1  0     0  0
  6 32  1  0     0  0
  7 10  1  0     0  0
  7 25  1  0     0  0
  8 26  1  0     0  0
  8 29  1  0     0  0
  8 30  1  0     0  0
  9 33  1  0     0  0
  9 34  1  0     0  0
  9 35  1  0     0  0
 10 13  1  0     0  0
 11 13  2  0     0  0
 11 29  1  0     0  0
 12 16  2  0     0  0
 12 17  1  0     0  0
 13 30  1  0     0  0
 14 18  2  0     0  0
 14 19  1  0     0  0
 14 25  1  0     0  0
 15 20  2  0     0  0
 15 21  1  0     0  0
 15 27  1  0     0  0
 16 18  1  0     0  0
 17 19  2  0     0  0
 20 22  1  0     0  0
 21 23  2  0     0  0
 22 24  2  0     0  0
 23 24  1  0     0  0
 26 27  1  0     0  0
 31 33  1  0     0  0
 32 34  1  0     0  0
M  END
> <standard_type>
pIC50

> <# Confs.>
25

> <canonical_smiles>
CN(CC1)CCN1C2=CC=C(C(NC3=NNC4=C3CN(C([C@H](C5=CC=CC=C5)OC)=O)C4)=O)C=C2

> <standard_relation>
=

> <Publication_ID>
nan

> <predicted_activity_value>
6.2839966563652006

> <actual_activity_value>
6.200659450546418

> <Compound>
20

> <standard_units>
nM

> hash
7939965660355082475

$$$$
19
XXILIB    08252103493D 0   0.00000     0.00000

 35 39  0     1  0            999 V2000
    1.7144   -0.0000   -2.2911 O   0  0  0  0  0  2           0  0  0
   -1.8577   -0.0317   -5.2343 O   0  0  0  0  0  2           0  0  0
   -4.3409    0.6500   -5.7376 O   0  0  0  0  0  2           0  0  0
   -2.0475   -0.0071    0.6334 N   0  0  0  0  0  3           0  0  0
   -0.7770    0.0000    1.1066 N   0  0  0  0  0  3           0  0  0
    7.8333    0.0386   -0.4788 N   0  0  2  0  0  3           0  0  0
    1.3878   -0.0000   -0.0000 N   0  0  0  0  0  3           0  0  0
   -2.1944   -0.0206   -2.9547 N   0  0  1  0  0  3           0  0  0
   10.6359    0.1430    0.0519 N   0  0  2  0  0  3           0  0  0
    0.0000    0.0000    0.0000 C   0  0  0  0  0  4           0  0  0
   -2.0797   -0.0078   -0.7113 C   0  0  0  0  0  4           0  0  0
    6.4607    0.0294   -0.6269 C   0  0  0  0  0  4           0  0  0
   -0.7943   -0.0032   -1.1543 C   0  0  0  0  0  4           0  0  0
    3.6246    0.0010   -0.9384 C   0  0  0  0  0  4           0  0  0
   -4.6685   -1.4376   -4.5744 C   0  0  0  0  0  4           0  0  0
    5.8344    0.5652   -1.7671 C   0  0  0  0  0  4           0  0  0
    5.6115   -0.5167    0.3530 C   0  0  0  0  0  4           0  0  0
    4.4424    0.5535   -1.9253 C   0  0  0  0  0  4           0  0  0
    4.2172   -0.5338    0.2063 C   0  0  0  0  0  4           0  0  0
   -3.8628   -2.5099   -4.9879 C   0  0  0  0  0  4           0  0  0
   -5.9947   -1.6978   -4.2007 C   0  0  0  0  0  4           0  0  0
   -4.3745   -3.8079   -5.0331 C   0  0  0  0  0  4           0  0  0
   -6.5051   -2.9964   -4.2471 C   0  0  0  0  0  4           0  0  0
   -5.6954   -4.0510   -4.6631 C   0  0  0  0  0  4           0  0  0
    2.1565    0.0000   -1.1440 C   0  0  0  0  0  4           0  0  0
   -2.6286   -0.0316   -4.2693 C   0  0  0  0  0  4           0  0  0
   -4.1300   -0.0306   -4.5107 C   0  0  1  0  0  4           0  0  0
   -4.5041    2.0514   -5.5660 C   0  0  0  0  0  4           0  0  0
   -3.0974   -0.0199   -1.7568 C   0  0  0  0  0  4           0  0  0
   -0.7336   -0.0112   -2.6184 C   0  0  0  0  0  4           0  0  0
    8.4740   -1.0303    0.2946 C   0  0  0  0  0  4           0  0  0
    8.5492    1.3168   -0.5568 C   0  0  0  0  0  4           0  0  0
    9.9566   -1.1525   -0.0616 C   0  0  0  0  0  4           0  0  0
   10.0288    1.1003   -0.8793 C   0  0  0  0  0  4           0  0  0
   12.0654   -0.0019   -0.2203 C   0  0  0  0  0  4           0  0  0
  1 25  2  0     0  0
  2 26  2  0     0  0
  3 27  1  0     0  0
  3 28  1  0     0  0
  4  5  1  0     0  0
  4 11  1  0     0  0
  5 10  2  0     0  0
  6 12  1  0     0  0
  6 31  1  0     0  0
  6 32  1  0     0  0
  7 10  1  0     0  0
  7 25  1  0     0  0
  8 26  1  0     0  0
  8 29  1  0     0  0
  8 30  1  0     0  0
  9 33  1  0     0  0
  9 34  1  0     0  0
  9 35  1  0     0  0
 10 13  1  0     0  0
 11 13  2  0     0  0
 11 29  1  0     0  0
 12 16  2  0     0  0
 12 17  1  0     0  0
 13 30  1  0     0  0
 14 18  2  0     0  0
 14 19  1  0     0  0
 14 25  1  0     0  0
 15 20  2  0     0  0
 15 21  1  0     0  0
 15 27  1  0     0  0
 16 18  1  0     0  0
 17 19  2  0     0  0
 20 22  1  0     0  0
 21 23  2  0     0  0
 22 24  2  0     0  0
 23 24  1  0     0  0
 26 27  1  0     0  0
 31 33  1  0     0  0
 32 34  1  0     0  0
M  END
> <standard_type>
pIC50

> <# Confs.>
25

> <canonical_smiles>
CN(CC1)CCN1C2=CC=C(C(NC3=NNC4=C3CN(C([C@H](C5=CC=CC=C5)OC)=O)C4)=O)C=C2

> <standard_relation>
=

> <Publication_ID>
nan

> <predicted_activity_value>
6.2839966563652006

> <actual_activity_value>
6.200659450546418

> <Compound>
20

> <standard_units>
nM

> hash
7939965660355082475

$$$$
19
XXILIB    08252103493D 0   0.00000     0.00000

 35 39  0     1  0            999 V2000
    1.7144    0.0000   -2.2911 O   0  0  0  0  0  2           0  0  0
   -1.8577   -0.0317   -5.2343 O   0  0  0  0  0  2           0  0  0
   -4.5275    1.3299   -4.5744 O   0  0  0  0  0  2           0  0  0
   -2.0475   -0.0071    0.6334 N   0  0  0  0  0  3           0  0  0
   -0.7770   -0.0000    1.1066 N   0  0  0  0  0  3           0  0  0
    7.8299   -0.0799   -0.4542 N   0  0  2  0  0  3           0  0  0
    1.3878    0.0000    0.0000 N   0  0  0  0  0  3           0  0  0
   -2.1944   -0.0206   -2.9547 N   0  0  1  0  0  3           0  0  0
   10.1996    1.4051    0.0344 N   0  0  2  0  0  3           0  0  0
    0.0000    0.0000    0.0000 C   0  0  0  0  0  4           0  0  0
   -2.0797   -0.0078   -0.7113 C   0  0  0  0  0  4           0  0  0
    6.4589   -0.0503   -0.6135 C   0  0  0  0  0  4           0  0  0
   -0.7943   -0.0032   -1.1543 C   0  0  0  0  0  4           0  0  0
    3.6246    0.0010   -0.9384 C   0  0  0  0  0  4           0  0  0
   -4.4727   -0.7535   -5.7889 C   0  0  0  0  0  4           0  0  0
    5.8339   -0.5788   -1.7577 C   0  0  0  0  0  4           0  0  0
    5.6099    0.5090    0.3593 C   0  0  0  0  0  4           0  0  0
    4.4427   -0.5566   -1.9222 C   0  0  0  0  0  4           0  0  0
    4.2166    0.5374    0.2058 C   0  0  0  0  0  4           0  0  0
   -4.7880   -2.1212   -5.7924 C   0  0  0  0  0  4           0  0  0
   -4.4966   -0.0546   -7.0043 C   0  0  0  0  0  4           0  0  0
   -5.1114   -2.7735   -6.9835 C   0  0  0  0  0  4           0  0  0
   -4.8197   -0.7086   -8.1946 C   0  0  0  0  0  4           0  0  0
   -5.1268   -2.0674   -8.1843 C   0  0  0  0  0  4           0  0  0
    2.1565    0.0000   -1.1440 C   0  0  0  0  0  4           0  0  0
   -2.6286   -0.0316   -4.2693 C   0  0  0  0  0  4           0  0  0
   -4.1300   -0.0306   -4.5107 C   0  0  1  0  0  4           0  0  0
   -5.8527    1.5363   -4.1042 C   0  0  0  0  0  4           0  0  0
   -3.0974   -0.0199   -1.7568 C   0  0  0  0  0  4           0  0  0
   -0.7336   -0.0112   -2.6184 C   0  0  0  0  0  4           0  0  0
    8.4654   -0.1594    0.8615 C   0  0  0  0  0  4           0  0  0
    8.7546    0.1776   -1.5583 C   0  0  0  0  0  4           0  0  0
    9.2377    1.1401    1.1175 C   0  0  0  0  0  4           0  0  0
    9.5222    1.4728   -1.2713 C   0  0  0  0  0  4           0  0  0
   10.9365    2.6409    0.2945 C   0  0  0  0  0  4           0  0  0
  1 25  2  0     0  0
  2 26  2  0     0  0
  3 27  1  0     0  0
  3 28  1  0     0  0
  4  5  1  0     0  0
  4 11  1  0     0  0
  5 10  2  0     0  0
  6 12  1  0     0  0
  6 31  1  0     0  0
  6 32  1  0     0  0
  7 10  1  0     0  0
  7 25  1  0     0  0
  8 26  1  0     0  0
  8 29  1  0     0  0
  8 30  1  0     0  0
  9 33  1  0     0  0
  9 34  1  0     0  0
  9 35  1  0     0  0
 10 13  1  0     0  0
 11 13  2  0     0  0
 11 29  1  0     0  0
 12 16  2  0     0  0
 12 17  1  0     0  0
 13 30  1  0     0  0
 14 18  2  0     0  0
 14 19  1  0     0  0
 14 25  1  0     0  0
 15 20  2  0     0  0
 15 21  1  0     0  0
 15 27  1  0     0  0
 16 18  1  0     0  0
 17 19  2  0     0  0
 20 22  1  0     0  0
 21 23  2  0     0  0
 22 24  2  0     0  0
 23 24  1  0     0  0
 26 27  1  0     0  0
 31 33  1  0     0  0
 32 34  1  0     0  0
M  END
> <standard_type>
pIC50

> <# Confs.>
25

> <canonical_smiles>
CN(CC1)CCN1C2=CC=C(C(NC3=NNC4=C3CN(C([C@H](C5=CC=CC=C5)OC)=O)C4)=O)C=C2

> <standard_relation>
=

> <Publication_ID>
nan

> <predicted_activity_value>
6.2839966563652006

> <actual_activity_value>
6.200659450546418

> <Compound>
20

> <standard_units>
nM

> hash
7939965660355082475

$$$$
19
XXILIB    08252103493D 0   0.00000     0.00000

 35 39  0     1  0            999 V2000
    1.7144   -0.0000   -2.2911 O   0  0  0  0  0  2           0  0  0
   -1.8577   -0.0317   -5.2343 O   0  0  0  0  0  2           0  0  0
   -4.5275    1.3299   -4.5744 O   0  0  0  0  0  2           0  0  0
   -2.0475   -0.0071    0.6334 N   0  0  0  0  0  3           0  0  0
   -0.7770   -0.0000    1.1066 N   0  0  0  0  0  3           0  0  0
    7.8333    0.0386   -0.4788 N   0  0  2  0  0  3           0  0  0
    1.3878   -0.0000   -0.0000 N   0  0  0  0  0  3           0  0  0
   -2.1944   -0.0206   -2.9547 N   0  0  1  0  0  3           0  0  0
   10.0459    0.7867    1.1350 N   0  0  2  0  0  3           0  0  0
    0.0000    0.0000    0.0000 C   0  0  0  0  0  4           0  0  0
   -2.0797   -0.0078   -0.7113 C   0  0  0  0  0  4           0  0  0
    6.4607    0.0294   -0.6269 C   0  0  0  0  0  4           0  0  0
   -0.7943   -0.0032   -1.1543 C   0  0  0  0  0  4           0  0  0
    3.6246    0.0010   -0.9384 C   0  0  0  0  0  4           0  0  0
   -4.4727   -0.7535   -5.7889 C   0  0  0  0  0  4           0  0  0
    5.8344    0.5652   -1.7671 C   0  0  0  0  0  4           0  0  0
    5.6115   -0.5167    0.3530 C   0  0  0  0  0  4           0  0  0
    4.4424    0.5535   -1.9253 C   0  0  0  0  0  4           0  0  0
    4.2172   -0.5338    0.2063 C   0  0  0  0  0  4           0  0  0
   -4.7880   -2.1212   -5.7924 C   0  0  0  0  0  4           0  0  0
   -4.4966   -0.0546   -7.0043 C   0  0  0  0  0  4           0  0  0
   -5.1114   -2.7735   -6.9835 C   0  0  0  0  0  4           0  0  0
   -4.8197   -0.7086   -8.1946 C   0  0  0  0  0  4           0  0  0
   -5.1268   -2.0674   -8.1843 C   0  0  0  0  0  4           0  0  0
    2.1565    0.0000   -1.1440 C   0  0  0  0  0  4           0  0  0
   -2.6286   -0.0316   -4.2693 C   0  0  0  0  0  4           0  0  0
   -4.1300   -0.0306   -4.5107 C   0  0  1  0  0  4           0  0  0
   -5.8527    1.5363   -4.1042 C   0  0  0  0  0  4           0  0  0
   -3.0974   -0.0199   -1.7568 C   0  0  0  0  0  4           0  0  0
   -0.7336   -0.0112   -2.6184 C   0  0  0  0  0  4           0  0  0
    8.5478   -0.9907    0.2769 C   0  0  0  0  0  4           0  0  0
    8.6587    1.1785   -0.8784 C   0  0  0  0  0  4           0  0  0
    9.1832   -0.3451    1.5139 C   0  0  0  0  0  4           0  0  0
    9.2916    1.7963    0.3734 C   0  0  0  0  0  4           0  0  0
   10.6534    1.3875    2.3215 C   0  0  0  0  0  4           0  0  0
  1 25  2  0     0  0
  2 26  2  0     0  0
  3 27  1  0     0  0
  3 28  1  0     0  0
  4  5  1  0     0  0
  4 11  1  0     0  0
  5 10  2  0     0  0
  6 12  1  0     0  0
  6 31  1  0     0  0
  6 32  1  0     0  0
  7 10  1  0     0  0
  7 25  1  0     0  0
  8 26  1  0     0  0
  8 29  1  0     0  0
  8 30  1  0     0  0
  9 33  1  0     0  0
  9 34  1  0     0  0
  9 35  1  0     0  0
 10 13  1  0     0  0
 11 13  2  0     0  0
 11 29  1  0     0  0
 12 16  2  0     0  0
 12 17  1  0     0  0
 13 30  1  0     0  0
 14 18  2  0     0  0
 14 19  1  0     0  0
 14 25  1  0     0  0
 15 20  2  0     0  0
 15 21  1  0     0  0
 15 27  1  0     0  0
 16 18  1  0     0  0
 17 19  2  0     0  0
 20 22  1  0     0  0
 21 23  2  0     0  0
 22 24  2  0     0  0
 23 24  1  0     0  0
 26 27  1  0     0  0
 31 33  1  0     0  0
 32 34  1  0     0  0
M  END
> <standard_type>
pIC50

> <# Confs.>
25

> <canonical_smiles>
CN(CC1)CCN1C2=CC=C(C(NC3=NNC4=C3CN(C([C@H](C5=CC=CC=C5)OC)=O)C4)=O)C=C2

> <standard_relation>
=

> <Publication_ID>
nan

> <predicted_activity_value>
6.2839966563652006

> <actual_activity_value>
6.200659450546418

> <Compound>
20

> <standard_units>
nM

> hash
7939965660355082475

$$$$
19
XXILIB    08252103493D 0   0.00000     0.00000

 35 39  0     1  0            999 V2000
    1.7144    0.0000   -2.2911 O   0  0  0  0  0  2           0  0  0
   -1.8577   -0.0317   -5.2343 O   0  0  0  0  0  2           0  0  0
   -4.4196    1.1478   -5.2459 O   0  0  0  0  0  2           0  0  0
   -2.0475   -0.0071    0.6334 N   0  0  0  0  0  3           0  0  0
   -0.7770    0.0000    1.1066 N   0  0  0  0  0  3           0  0  0
    7.8299   -0.0799   -0.4542 N   0  0  2  0  0  3           0  0  0
    1.3878    0.0000    0.0000 N   0  0  0  0  0  3           0  0  0
   -2.1944   -0.0206   -2.9547 N   0  0  1  0  0  3           0  0  0
   10.6259   -0.2054    0.1060 N   0  0  2  0  0  3           0  0  0
    0.0000    0.0000    0.0000 C   0  0  0  0  0  4           0  0  0
   -2.0797   -0.0078   -0.7113 C   0  0  0  0  0  4           0  0  0
    6.4589   -0.0503   -0.6135 C   0  0  0  0  0  4           0  0  0
   -0.7943   -0.0032   -1.1543 C   0  0  0  0  0  4           0  0  0
    3.6246    0.0010   -0.9384 C   0  0  0  0  0  4           0  0  0
   -4.5562   -1.2603   -5.2721 C   0  0  0  0  0  4           0  0  0
    5.8339   -0.5788   -1.7577 C   0  0  0  0  0  4           0  0  0
    5.6099    0.5090    0.3593 C   0  0  0  0  0  4           0  0  0
    4.4427   -0.5566   -1.9222 C   0  0  0  0  0  4           0  0  0
    4.2166    0.5374    0.2058 C   0  0  0  0  0  4           0  0  0
   -4.9788   -2.4215   -4.6066 C   0  0  0  0  0  4           0  0  0
   -4.5505   -1.2532   -6.6743 C   0  0  0  0  0  4           0  0  0
   -5.3783   -3.5486   -5.3267 C   0  0  0  0  0  4           0  0  0
   -4.9497   -2.3815   -7.3930 C   0  0  0  0  0  4           0  0  0
   -5.3633   -3.5287   -6.7196 C   0  0  0  0  0  4           0  0  0
    2.1565    0.0000   -1.1440 C   0  0  0  0  0  4           0  0  0
   -2.6286   -0.0316   -4.2693 C   0  0  0  0  0  4           0  0  0
   -4.1300   -0.0306   -4.5107 C   0  0  1  0  0  4           0  0  0
   -5.7139    1.6639   -4.9664 C   0  0  0  0  0  4           0  0  0
   -3.0974   -0.0199   -1.7568 C   0  0  0  0  0  4           0  0  0
   -0.7336   -0.0112   -2.6184 C   0  0  0  0  0  4           0  0  0
    8.5181   -1.3751   -0.4397 C   0  0  0  0  0  4           0  0  0
    8.4888    1.0254    0.2506 C   0  0  0  0  0  4           0  0  0
   10.0041   -1.2107   -0.7630 C   0  0  0  0  0  4           0  0  0
    9.9761    1.0935   -0.1008 C   0  0  0  0  0  4           0  0  0
   12.0601   -0.1106   -0.1639 C   0  0  0  0  0  4           0  0  0
  1 25  2  0     0  0
  2 26  2  0     0  0
  3 27  1  0     0  0
  3 28  1  0     0  0
  4  5  1  0     0  0
  4 11  1  0     0  0
  5 10  2  0     0  0
  6 12  1  0     0  0
  6 31  1  0     0  0
  6 32  1  0     0  0
  7 10  1  0     0  0
  7 25  1  0     0  0
  8 26  1  0     0  0
  8 29  1  0     0  0
  8 30  1  0     0  0
  9 33  1  0     0  0
  9 34  1  0     0  0
  9 35  1  0     0  0
 10 13  1  0     0  0
 11 13  2  0     0  0
 11 29  1  0     0  0
 12 16  2  0     0  0
 12 17  1  0     0  0
 13 30  1  0     0  0
 14 18  2  0     0  0
 14 19  1  0     0  0
 14 25  1  0     0  0
 15 20  2  0     0  0
 15 21  1  0     0  0
 15 27  1  0     0  0
 16 18  1  0     0  0
 17 19  2  0     0  0
 20 22  1  0     0  0
 21 23  2  0     0  0
 22 24  2  0     0  0
 23 24  1  0     0  0
 26 27  1  0     0  0
 31 33  1  0     0  0
 32 34  1  0     0  0
M  END
> <standard_type>
pIC50

> <# Confs.>
25

> <canonical_smiles>
CN(CC1)CCN1C2=CC=C(C(NC3=NNC4=C3CN(C([C@H](C5=CC=CC=C5)OC)=O)C4)=O)C=C2

> <standard_relation>
=

> <Publication_ID>
nan

> <predicted_activity_value>
6.2839966563652006

> <actual_activity_value>
6.200659450546418

> <Compound>
20

> <standard_units>
nM

> hash
7939965660355082475

$$$$
19
XXILIB    08252103493D 0   0.00000     0.00000

 35 39  0     1  0            999 V2000
    1.7144   -0.0000   -2.2911 O   0  0  0  0  0  2           0  0  0
   -1.8577   -0.0317   -5.2343 O   0  0  0  0  0  2           0  0  0
   -4.4196    1.1478   -5.2459 O   0  0  0  0  0  2           0  0  0
   -2.0475   -0.0071    0.6334 N   0  0  0  0  0  3           0  0  0
   -0.7770    0.0000    1.1066 N   0  0  0  0  0  3           0  0  0
    7.8333    0.0386   -0.4788 N   0  0  2  0  0  3           0  0  0
    1.3878   -0.0000   -0.0000 N   0  0  0  0  0  3           0  0  0
   -2.1944   -0.0206   -2.9547 N   0  0  1  0  0  3           0  0  0
   10.6531   -0.1693   -0.0888 N   0  0  2  0  0  3           0  0  0
    0.0000    0.0000    0.0000 C   0  0  0  0  0  4           0  0  0
   -2.0797   -0.0078   -0.7113 C   0  0  0  0  0  4           0  0  0
    6.4607    0.0294   -0.6269 C   0  0  0  0  0  4           0  0  0
   -0.7943   -0.0032   -1.1543 C   0  0  0  0  0  4           0  0  0
    3.6246    0.0010   -0.9384 C   0  0  0  0  0  4           0  0  0
   -4.5562   -1.2603   -5.2721 C   0  0  0  0  0  4           0  0  0
    5.8344    0.5652   -1.7671 C   0  0  0  0  0  4           0  0  0
    5.6115   -0.5167    0.3530 C   0  0  0  0  0  4           0  0  0
    4.4424    0.5535   -1.9253 C   0  0  0  0  0  4           0  0  0
    4.2172   -0.5338    0.2063 C   0  0  0  0  0  4           0  0  0
   -4.9788   -2.4215   -4.6066 C   0  0  0  0  0  4           0  0  0
   -4.5505   -1.2532   -6.6743 C   0  0  0  0  0  4           0  0  0
   -5.3783   -3.5486   -5.3267 C   0  0  0  0  0  4           0  0  0
   -4.9497   -2.3815   -7.3930 C   0  0  0  0  0  4           0  0  0
   -5.3633   -3.5287   -6.7196 C   0  0  0  0  0  4           0  0  0
    2.1565    0.0000   -1.1440 C   0  0  0  0  0  4           0  0  0
   -2.6286   -0.0316   -4.2693 C   0  0  0  0  0  4           0  0  0
   -4.1300   -0.0306   -4.5107 C   0  0  1  0  0  4           0  0  0
   -5.7139    1.6639   -4.9664 C   0  0  0  0  0  4           0  0  0
   -3.0974   -0.0199   -1.7568 C   0  0  0  0  0  4           0  0  0
   -0.7336   -0.0112   -2.6184 C   0  0  0  0  0  4           0  0  0
    8.6618   -0.6568   -1.4694 C   0  0  0  0  0  4           0  0  0
    8.4035    0.1978    0.8635 C   0  0  0  0  0  4           0  0  0
   10.0992   -0.1340   -1.4469 C   0  0  0  0  0  4           0  0  0
    9.8513    0.6867    0.7923 C   0  0  0  0  0  4           0  0  0
   12.0499    0.2639   -0.0932 C   0  0  0  0  0  4           0  0  0
  1 25  2  0     0  0
  2 26  2  0     0  0
  3 27  1  0     0  0
  3 28  1  0     0  0
  4  5  1  0     0  0
  4 11  1  0     0  0
  5 10  2  0     0  0
  6 12  1  0     0  0
  6 31  1  0     0  0
  6 32  1  0     0  0
  7 10  1  0     0  0
  7 25  1  0     0  0
  8 26  1  0     0  0
  8 29  1  0     0  0
  8 30  1  0     0  0
  9 33  1  0     0  0
  9 34  1  0     0  0
  9 35  1  0     0  0
 10 13  1  0     0  0
 11 13  2  0     0  0
 11 29  1  0     0  0
 12 16  2  0     0  0
 12 17  1  0     0  0
 13 30  1  0     0  0
 14 18  2  0     0  0
 14 19  1  0     0  0
 14 25  1  0     0  0
 15 20  2  0     0  0
 15 21  1  0     0  0
 15 27  1  0     0  0
 16 18  1  0     0  0
 17 19  2  0     0  0
 20 22  1  0     0  0
 21 23  2  0     0  0
 22 24  2  0     0  0
 23 24  1  0     0  0
 26 27  1  0     0  0
 31 33  1  0     0  0
 32 34  1  0     0  0
M  END
> <standard_type>
pIC50

> <# Confs.>
25

> <canonical_smiles>
CN(CC1)CCN1C2=CC=C(C(NC3=NNC4=C3CN(C([C@H](C5=CC=CC=C5)OC)=O)C4)=O)C=C2

> <standard_relation>
=

> <Publication_ID>
nan

> <predicted_activity_value>
6.2839966563652006

> <actual_activity_value>
6.200659450546418

> <Compound>
20

> <standard_units>
nM

> hash
7939965660355082475

$$$$
19
XXILIB    08252103493D 0   0.00000     0.00000

 35 39  0     1  0            999 V2000
    1.7144   -0.0000   -2.2911 O   0  0  0  0  0  2           0  0  0
   -1.8577   -0.0317   -5.2343 O   0  0  0  0  0  2           0  0  0
   -4.5275    1.3299   -4.5744 O   0  0  0  0  0  2           0  0  0
   -2.0475   -0.0071    0.6334 N   0  0  0  0  0  3           0  0  0
   -0.7770   -0.0000    1.1066 N   0  0  0  0  0  3           0  0  0
    7.8333    0.0386   -0.4788 N   0  0  2  0  0  3           0  0  0
    1.3878   -0.0000   -0.0000 N   0  0  0  0  0  3           0  0  0
   -2.1944   -0.0206   -2.9547 N   0  0  1  0  0  3           0  0  0
    9.9716   -1.7280    0.1268 N   0  0  2  0  0  3           0  0  0
    0.0000    0.0000    0.0000 C   0  0  0  0  0  4           0  0  0
   -2.0797   -0.0078   -0.7113 C   0  0  0  0  0  4           0  0  0
    6.4607    0.0294   -0.6269 C   0  0  0  0  0  4           0  0  0
   -0.7943   -0.0032   -1.1543 C   0  0  0  0  0  4           0  0  0
    3.6246    0.0010   -0.9384 C   0  0  0  0  0  4           0  0  0
   -4.4727   -0.7535   -5.7889 C   0  0  0  0  0  4           0  0  0
    5.8344    0.5652   -1.7671 C   0  0  0  0  0  4           0  0  0
    5.6115   -0.5167    0.3530 C   0  0  0  0  0  4           0  0  0
    4.4424    0.5535   -1.9253 C   0  0  0  0  0  4           0  0  0
    4.2172   -0.5338    0.2063 C   0  0  0  0  0  4           0  0  0
   -4.7880   -2.1212   -5.7924 C   0  0  0  0  0  4           0  0  0
   -4.4966   -0.0546   -7.0043 C   0  0  0  0  0  4           0  0  0
   -5.1114   -2.7735   -6.9835 C   0  0  0  0  0  4           0  0  0
   -4.8197   -0.7086   -8.1946 C   0  0  0  0  0  4           0  0  0
   -5.1268   -2.0674   -8.1843 C   0  0  0  0  0  4           0  0  0
    2.1565    0.0000   -1.1440 C   0  0  0  0  0  4           0  0  0
   -2.6286   -0.0316   -4.2693 C   0  0  0  0  0  4           0  0  0
   -4.1300   -0.0306   -4.5107 C   0  0  1  0  0  4           0  0  0
   -5.8527    1.5363   -4.1042 C   0  0  0  0  0  4           0  0  0
   -3.0974   -0.0199   -1.7568 C   0  0  0  0  0  4           0  0  0
   -0.7336   -0.0112   -2.6184 C   0  0  0  0  0  4           0  0  0
    8.4709    0.1112    0.8369 C   0  0  0  0  0  4           0  0  0
    8.7310   -0.3963   -1.5503 C   0  0  0  0  0  4           0  0  0
    9.0509   -1.2663    1.1801 C   0  0  0  0  0  4           0  0  0
    9.3029   -1.7709   -1.1854 C   0  0  0  0  0  4           0  0  0
   10.5220   -3.0396    0.4648 C   0  0  0  0  0  4           0  0  0
  1 25  2  0     0  0
  2 26  2  0     0  0
  3 27  1  0     0  0
  3 28  1  0     0  0
  4  5  1  0     0  0
  4 11  1  0     0  0
  5 10  2  0     0  0
  6 12  1  0     0  0
  6 31  1  0     0  0
  6 32  1  0     0  0
  7 10  1  0     0  0
  7 25  1  0     0  0
  8 26  1  0     0  0
  8 29  1  0     0  0
  8 30  1  0     0  0
  9 33  1  0     0  0
  9 34  1  0     0  0
  9 35  1  0     0  0
 10 13  1  0     0  0
 11 13  2  0     0  0
 11 29  1  0     0  0
 12 16  2  0     0  0
 12 17  1  0     0  0
 13 30  1  0     0  0
 14 18  2  0     0  0
 14 19  1  0     0  0
 14 25  1  0     0  0
 15 20  2  0     0  0
 15 21  1  0     0  0
 15 27  1  0     0  0
 16 18  1  0     0  0
 17 19  2  0     0  0
 20 22  1  0     0  0
 21 23  2  0     0  0
 22 24  2  0     0  0
 23 24  1  0     0  0
 26 27  1  0     0  0
 31 33  1  0     0  0
 32 34  1  0     0  0
M  END
> <standard_type>
pIC50

> <# Confs.>
25

> <canonical_smiles>
CN(CC1)CCN1C2=CC=C(C(NC3=NNC4=C3CN(C([C@H](C5=CC=CC=C5)OC)=O)C4)=O)C=C2

> <standard_relation>
=

> <Publication_ID>
nan

> <predicted_activity_value>
6.2839966563652006

> <actual_activity_value>
6.200659450546418

> <Compound>
20

> <standard_units>
nM

> hash
7939965660355082475

$$$$
19
XXILIB    08252103493D 0   0.00000     0.00000

 35 39  0     1  0            999 V2000
    1.7144    0.0000   -2.2911 O   0  0  0  0  0  2           0  0  0
   -1.8577   -0.0317   -5.2343 O   0  0  0  0  0  2           0  0  0
   -4.3409    0.6500   -5.7376 O   0  0  0  0  0  2           0  0  0
   -2.0475   -0.0071    0.6334 N   0  0  0  0  0  3           0  0  0
   -0.7770    0.0000    1.1066 N   0  0  0  0  0  3           0  0  0
    7.8299   -0.0799   -0.4542 N   0  0  2  0  0  3           0  0  0
    1.3878    0.0000    0.0000 N   0  0  0  0  0  3           0  0  0
   -2.1944   -0.0206   -2.9547 N   0  0  1  0  0  3           0  0  0
   10.1996    1.4051    0.0344 N   0  0  2  0  0  3           0  0  0
    0.0000    0.0000    0.0000 C   0  0  0  0  0  4           0  0  0
   -2.0797   -0.0078   -0.7113 C   0  0  0  0  0  4           0  0  0
    6.4589   -0.0503   -0.6135 C   0  0  0  0  0  4           0  0  0
   -0.7943   -0.0032   -1.1543 C   0  0  0  0  0  4           0  0  0
    3.6246    0.0010   -0.9384 C   0  0  0  0  0  4           0  0  0
   -4.6685   -1.4376   -4.5744 C   0  0  0  0  0  4           0  0  0
    5.8339   -0.5788   -1.7577 C   0  0  0  0  0  4           0  0  0
    5.6099    0.5090    0.3593 C   0  0  0  0  0  4           0  0  0
    4.4427   -0.5566   -1.9222 C   0  0  0  0  0  4           0  0  0
    4.2166    0.5374    0.2058 C   0  0  0  0  0  4           0  0  0
   -3.8628   -2.5099   -4.9879 C   0  0  0  0  0  4           0  0  0
   -5.9947   -1.6978   -4.2007 C   0  0  0  0  0  4           0  0  0
   -4.3745   -3.8079   -5.0331 C   0  0  0  0  0  4           0  0  0
   -6.5051   -2.9964   -4.2471 C   0  0  0  0  0  4           0  0  0
   -5.6954   -4.0510   -4.6631 C   0  0  0  0  0  4           0  0  0
    2.1565    0.0000   -1.1440 C   0  0  0  0  0  4           0  0  0
   -2.6286   -0.0316   -4.2693 C   0  0  0  0  0  4           0  0  0
   -4.1300   -0.0306   -4.5107 C   0  0  1  0  0  4           0  0  0
   -4.5041    2.0514   -5.5660 C   0  0  0  0  0  4           0  0  0
   -3.0974   -0.0199   -1.7568 C   0  0  0  0  0  4           0  0  0
   -0.7336   -0.0112   -2.6184 C   0  0  0  0  0  4           0  0  0
    8.4654   -0.1594    0.8615 C   0  0  0  0  0  4           0  0  0
    8.7546    0.1776   -1.5583 C   0  0  0  0  0  4           0  0  0
    9.2377    1.1401    1.1175 C   0  0  0  0  0  4           0  0  0
    9.5222    1.4728   -1.2713 C   0  0  0  0  0  4           0  0  0
   10.9365    2.6409    0.2945 C   0  0  0  0  0  4           0  0  0
  1 25  2  0     0  0
  2 26  2  0     0  0
  3 27  1  0     0  0
  3 28  1  0     0  0
  4  5  1  0     0  0
  4 11  1  0     0  0
  5 10  2  0     0  0
  6 12  1  0     0  0
  6 31  1  0     0  0
  6 32  1  0     0  0
  7 10  1  0     0  0
  7 25  1  0     0  0
  8 26  1  0     0  0
  8 29  1  0     0  0
  8 30  1  0     0  0
  9 33  1  0     0  0
  9 34  1  0     0  0
  9 35  1  0     0  0
 10 13  1  0     0  0
 11 13  2  0     0  0
 11 29  1  0     0  0
 12 16  2  0     0  0
 12 17  1  0     0  0
 13 30  1  0     0  0
 14 18  2  0     0  0
 14 19  1  0     0  0
 14 25  1  0     0  0
 15 20  2  0     0  0
 15 21  1  0     0  0
 15 27  1  0     0  0
 16 18  1  0     0  0
 17 19  2  0     0  0
 20 22  1  0     0  0
 21 23  2  0     0  0
 22 24  2  0     0  0
 23 24  1  0     0  0
 26 27  1  0     0  0
 31 33  1  0     0  0
 32 34  1  0     0  0
M  END
> <standard_type>
pIC50

> <# Confs.>
25

> <canonical_smiles>
CN(CC1)CCN1C2=CC=C(C(NC3=NNC4=C3CN(C([C@H](C5=CC=CC=C5)OC)=O)C4)=O)C=C2

> <standard_relation>
=

> <Publication_ID>
nan

> <predicted_activity_value>
6.2839966563652006

> <actual_activity_value>
6.200659450546418

> <Compound>
20

> <standard_units>
nM

> hash
7939965660355082475

$$$$
19
XXILIB    08252103493D 0   0.00000     0.00000

 35 39  0     1  0            999 V2000
    1.7144    0.0000   -2.2911 O   0  0  0  0  0  2           0  0  0
   -1.8577   -0.0317   -5.2343 O   0  0  0  0  0  2           0  0  0
   -4.5275    1.3299   -4.5744 O   0  0  0  0  0  2           0  0  0
   -2.0475   -0.0071    0.6334 N   0  0  0  0  0  3           0  0  0
   -0.7770   -0.0000    1.1066 N   0  0  0  0  0  3           0  0  0
    7.8299   -0.0799   -0.4542 N   0  0  2  0  0  3           0  0  0
    1.3878    0.0000    0.0000 N   0  0  0  0  0  3           0  0  0
   -2.1944   -0.0206   -2.9547 N   0  0  1  0  0  3           0  0  0
    9.7864   -0.8725    1.4442 N   0  0  2  0  0  3           0  0  0
    0.0000    0.0000    0.0000 C   0  0  0  0  0  4           0  0  0
   -2.0797   -0.0078   -0.7113 C   0  0  0  0  0  4           0  0  0
    6.4589   -0.0503   -0.6135 C   0  0  0  0  0  4           0  0  0
   -0.7943   -0.0032   -1.1543 C   0  0  0  0  0  4           0  0  0
    3.6246    0.0010   -0.9384 C   0  0  0  0  0  4           0  0  0
   -4.4727   -0.7535   -5.7889 C   0  0  0  0  0  4           0  0  0
    5.8339   -0.5788   -1.7577 C   0  0  0  0  0  4           0  0  0
    5.6099    0.5090    0.3593 C   0  0  0  0  0  4           0  0  0
    4.4427   -0.5566   -1.9222 C   0  0  0  0  0  4           0  0  0
    4.2166    0.5374    0.2058 C   0  0  0  0  0  4           0  0  0
   -4.7880   -2.1212   -5.7924 C   0  0  0  0  0  4           0  0  0
   -4.4966   -0.0546   -7.0043 C   0  0  0  0  0  4           0  0  0
   -5.1114   -2.7735   -6.9835 C   0  0  0  0  0  4           0  0  0
   -4.8197   -0.7086   -8.1946 C   0  0  0  0  0  4           0  0  0
   -5.1268   -2.0674   -8.1843 C   0  0  0  0  0  4           0  0  0
    2.1565    0.0000   -1.1440 C   0  0  0  0  0  4           0  0  0
   -2.6286   -0.0316   -4.2693 C   0  0  0  0  0  4           0  0  0
   -4.1300   -0.0306   -4.5107 C   0  0  1  0  0  4           0  0  0
   -5.8527    1.5363   -4.1042 C   0  0  0  0  0  4           0  0  0
   -3.0974   -0.0199   -1.7568 C   0  0  0  0  0  4           0  0  0
   -0.7336   -0.0112   -2.6184 C   0  0  0  0  0  4           0  0  0
    8.5444    0.9456    0.3079 C   0  0  0  0  0  4           0  0  0
    8.6114   -1.2946   -0.6927 C   0  0  0  0  0  4           0  0  0
    8.9841    0.3459    1.6492 C   0  0  0  0  0  4           0  0  0
    9.0446   -1.8742    0.6586 C   0  0  0  0  0  4           0  0  0
   10.2039   -1.4342    2.7278 C   0  0  0  0  0  4           0  0  0
  1 25  2  0     0  0
  2 26  2  0     0  0
  3 27  1  0     0  0
  3 28  1  0     0  0
  4  5  1  0     0  0
  4 11  1  0     0  0
  5 10  2  0     0  0
  6 12  1  0     0  0
  6 31  1  0     0  0
  6 32  1  0     0  0
  7 10  1  0     0  0
  7 25  1  0     0  0
  8 26  1  0     0  0
  8 29  1  0     0  0
  8 30  1  0     0  0
  9 33  1  0     0  0
  9 34  1  0     0  0
  9 35  1  0     0  0
 10 13  1  0     0  0
 11 13  2  0     0  0
 11 29  1  0     0  0
 12 16  2  0     0  0
 12 17  1  0     0  0
 13 30  1  0     0  0
 14 18  2  0     0  0
 14 19  1  0     0  0
 14 25  1  0     0  0
 15 20  2  0     0  0
 15 21  1  0     0  0
 15 27  1  0     0  0
 16 18  1  0     0  0
 17 19  2  0     0  0
 20 22  1  0     0  0
 21 23  2  0     0  0
 22 24  2  0     0  0
 23 24  1  0     0  0
 26 27  1  0     0  0
 31 33  1  0     0  0
 32 34  1  0     0  0
M  END
> <standard_type>
pIC50

> <# Confs.>
25

> <canonical_smiles>
CN(CC1)CCN1C2=CC=C(C(NC3=NNC4=C3CN(C([C@H](C5=CC=CC=C5)OC)=O)C4)=O)C=C2

> <standard_relation>
=

> <Publication_ID>
nan

> <predicted_activity_value>
6.2839966563652006

> <actual_activity_value>
6.200659450546418

> <Compound>
20

> <standard_units>
nM

> hash
7939965660355082475

$$$$
19
XXILIB    08252103493D 0   0.00000     0.00000

 35 39  0     1  0            999 V2000
    1.7144   -0.0000   -2.2911 O   0  0  0  0  0  2           0  0  0
   -1.8577   -0.0317   -5.2343 O   0  0  0  0  0  2           0  0  0
   -4.3409    0.6500   -5.7376 O   0  0  0  0  0  2           0  0  0
   -2.0475   -0.0071    0.6334 N   0  0  0  0  0  3           0  0  0
   -0.7770    0.0000    1.1066 N   0  0  0  0  0  3           0  0  0
    7.8333    0.0386   -0.4788 N   0  0  2  0  0  3           0  0  0
    1.3878   -0.0000   -0.0000 N   0  0  0  0  0  3           0  0  0
   -2.1944   -0.0206   -2.9547 N   0  0  1  0  0  3           0  0  0
   10.0459    0.7867    1.1350 N   0  0  2  0  0  3           0  0  0
    0.0000    0.0000    0.0000 C   0  0  0  0  0  4           0  0  0
   -2.0797   -0.0078   -0.7113 C   0  0  0  0  0  4           0  0  0
    6.4607    0.0294   -0.6269 C   0  0  0  0  0  4           0  0  0
   -0.7943   -0.0032   -1.1543 C   0  0  0  0  0  4           0  0  0
    3.6246    0.0010   -0.9384 C   0  0  0  0  0  4           0  0  0
   -4.6685   -1.4376   -4.5744 C   0  0  0  0  0  4           0  0  0
    5.8344    0.5652   -1.7671 C   0  0  0  0  0  4           0  0  0
    5.6115   -0.5167    0.3530 C   0  0  0  0  0  4           0  0  0
    4.4424    0.5535   -1.9253 C   0  0  0  0  0  4           0  0  0
    4.2172   -0.5338    0.2063 C   0  0  0  0  0  4           0  0  0
   -3.8628   -2.5099   -4.9879 C   0  0  0  0  0  4           0  0  0
   -5.9947   -1.6978   -4.2007 C   0  0  0  0  0  4           0  0  0
   -4.3745   -3.8079   -5.0331 C   0  0  0  0  0  4           0  0  0
   -6.5051   -2.9964   -4.2471 C   0  0  0  0  0  4           0  0  0
   -5.6954   -4.0510   -4.6631 C   0  0  0  0  0  4           0  0  0
    2.1565    0.0000   -1.1440 C   0  0  0  0  0  4           0  0  0
   -2.6286   -0.0316   -4.2693 C   0  0  0  0  0  4           0  0  0
   -4.1300   -0.0306   -4.5107 C   0  0  1  0  0  4           0  0  0
   -4.5041    2.0514   -5.5660 C   0  0  0  0  0  4           0  0  0
   -3.0974   -0.0199   -1.7568 C   0  0  0  0  0  4           0  0  0
   -0.7336   -0.0112   -2.6184 C   0  0  0  0  0  4           0  0  0
    8.5478   -0.9907    0.2769 C   0  0  0  0  0  4           0  0  0
    8.6587    1.1785   -0.8784 C   0  0  0  0  0  4           0  0  0
    9.1832   -0.3451    1.5139 C   0  0  0  0  0  4           0  0  0
    9.2916    1.7963    0.3734 C   0  0  0  0  0  4           0  0  0
   10.6534    1.3875    2.3215 C   0  0  0  0  0  4           0  0  0
  1 25  2  0     0  0
  2 26  2  0     0  0
  3 27  1  0     0  0
  3 28  1  0     0  0
  4  5  1  0     0  0
  4 11  1  0     0  0
  5 10  2  0     0  0
  6 12  1  0     0  0
  6 31  1  0     0  0
  6 32  1  0     0  0
  7 10  1  0     0  0
  7 25  1  0     0  0
  8 26  1  0     0  0
  8 29  1  0     0  0
  8 30  1  0     0  0
  9 33  1  0     0  0
  9 34  1  0     0  0
  9 35  1  0     0  0
 10 13  1  0     0  0
 11 13  2  0     0  0
 11 29  1  0     0  0
 12 16  2  0     0  0
 12 17  1  0     0  0
 13 30  1  0     0  0
 14 18  2  0     0  0
 14 19  1  0     0  0
 14 25  1  0     0  0
 15 20  2  0     0  0
 15 21  1  0     0  0
 15 27  1  0     0  0
 16 18  1  0     0  0
 17 19  2  0     0  0
 20 22  1  0     0  0
 21 23  2  0     0  0
 22 24  2  0     0  0
 23 24  1  0     0  0
 26 27  1  0     0  0
 31 33  1  0     0  0
 32 34  1  0     0  0
M  END
> <standard_type>
pIC50

> <# Confs.>
25

> <canonical_smiles>
CN(CC1)CCN1C2=CC=C(C(NC3=NNC4=C3CN(C([C@H](C5=CC=CC=C5)OC)=O)C4)=O)C=C2

> <standard_relation>
=

> <Publication_ID>
nan

> <predicted_activity_value>
6.2839966563652006

> <actual_activity_value>
6.200659450546418

> <Compound>
20

> <standard_units>
nM

> hash
7939965660355082475

$$$$
19
XXILIB    08252103493D 0   0.00000     0.00000

 35 39  0     1  0            999 V2000
    1.7144   -0.0000   -2.2911 O   0  0  0  0  0  2           0  0  0
   -1.8577   -0.0317   -5.2343 O   0  0  0  0  0  2           0  0  0
   -4.3409    0.6500   -5.7376 O   0  0  0  0  0  2           0  0  0
   -2.0475   -0.0071    0.6334 N   0  0  0  0  0  3           0  0  0
   -0.7770    0.0000    1.1066 N   0  0  0  0  0  3           0  0  0
    7.8333    0.0386   -0.4788 N   0  0  2  0  0  3           0  0  0
    1.3878   -0.0000   -0.0000 N   0  0  0  0  0  3           0  0  0
   -2.1944   -0.0206   -2.9547 N   0  0  1  0  0  3           0  0  0
    9.9716   -1.7280    0.1268 N   0  0  2  0  0  3           0  0  0
    0.0000    0.0000    0.0000 C   0  0  0  0  0  4           0  0  0
   -2.0797   -0.0078   -0.7113 C   0  0  0  0  0  4           0  0  0
    6.4607    0.0294   -0.6269 C   0  0  0  0  0  4           0  0  0
   -0.7943   -0.0032   -1.1543 C   0  0  0  0  0  4           0  0  0
    3.6246    0.0010   -0.9384 C   0  0  0  0  0  4           0  0  0
   -4.6685   -1.4376   -4.5744 C   0  0  0  0  0  4           0  0  0
    5.8344    0.5652   -1.7671 C   0  0  0  0  0  4           0  0  0
    5.6115   -0.5167    0.3530 C   0  0  0  0  0  4           0  0  0
    4.4424    0.5535   -1.9253 C   0  0  0  0  0  4           0  0  0
    4.2172   -0.5338    0.2063 C   0  0  0  0  0  4           0  0  0
   -3.8628   -2.5099   -4.9879 C   0  0  0  0  0  4           0  0  0
   -5.9947   -1.6978   -4.2007 C   0  0  0  0  0  4           0  0  0
   -4.3745   -3.8079   -5.0331 C   0  0  0  0  0  4           0  0  0
   -6.5051   -2.9964   -4.2471 C   0  0  0  0  0  4           0  0  0
   -5.6954   -4.0510   -4.6631 C   0  0  0  0  0  4           0  0  0
    2.1565    0.0000   -1.1440 C   0  0  0  0  0  4           0  0  0
   -2.6286   -0.0316   -4.2693 C   0  0  0  0  0  4           0  0  0
   -4.1300   -0.0306   -4.5107 C   0  0  1  0  0  4           0  0  0
   -4.5041    2.0514   -5.5660 C   0  0  0  0  0  4           0  0  0
   -3.0974   -0.0199   -1.7568 C   0  0  0  0  0  4           0  0  0
   -0.7336   -0.0112   -2.6184 C   0  0  0  0  0  4           0  0  0
    8.4709    0.1112    0.8369 C   0  0  0  0  0  4           0  0  0
    8.7310   -0.3963   -1.5503 C   0  0  0  0  0  4           0  0  0
    9.0509   -1.2663    1.1801 C   0  0  0  0  0  4           0  0  0
    9.3029   -1.7709   -1.1854 C   0  0  0  0  0  4           0  0  0
   10.5220   -3.0396    0.4648 C   0  0  0  0  0  4           0  0  0
  1 25  2  0     0  0
  2 26  2  0     0  0
  3 27  1  0     0  0
  3 28  1  0     0  0
  4  5  1  0     0  0
  4 11  1  0     0  0
  5 10  2  0     0  0
  6 12  1  0     0  0
  6 31  1  0     0  0
  6 32  1  0     0  0
  7 10  1  0     0  0
  7 25  1  0     0  0
  8 26  1  0     0  0
  8 29  1  0     0  0
  8 30  1  0     0  0
  9 33  1  0     0  0
  9 34  1  0     0  0
  9 35  1  0     0  0
 10 13  1  0     0  0
 11 13  2  0     0  0
 11 29  1  0     0  0
 12 16  2  0     0  0
 12 17  1  0     0  0
 13 30  1  0     0  0
 14 18  2  0     0  0
 14 19  1  0     0  0
 14 25  1  0     0  0
 15 20  2  0     0  0
 15 21  1  0     0  0
 15 27  1  0     0  0
 16 18  1  0     0  0
 17 19  2  0     0  0
 20 22  1  0     0  0
 21 23  2  0     0  0
 22 24  2  0     0  0
 23 24  1  0     0  0
 26 27  1  0     0  0
 31 33  1  0     0  0
 32 34  1  0     0  0
M  END
> <standard_type>
pIC50

> <# Confs.>
25

> <canonical_smiles>
CN(CC1)CCN1C2=CC=C(C(NC3=NNC4=C3CN(C([C@H](C5=CC=CC=C5)OC)=O)C4)=O)C=C2

> <standard_relation>
=

> <Publication_ID>
nan

> <predicted_activity_value>
6.2839966563652006

> <actual_activity_value>
6.200659450546418

> <Compound>
20

> <standard_units>
nM

> hash
7939965660355082475

$$$$
19
XXILIB    08252103493D 0   0.00000     0.00000

 35 39  0     1  0            999 V2000
    1.7144    0.0000   -2.2911 O   0  0  0  0  0  2           0  0  0
   -1.8577   -0.0317   -5.2343 O   0  0  0  0  0  2           0  0  0
   -4.3409    0.6500   -5.7376 O   0  0  0  0  0  2           0  0  0
   -2.0475   -0.0071    0.6334 N   0  0  0  0  0  3           0  0  0
   -0.7770    0.0000    1.1066 N   0  0  0  0  0  3           0  0  0
    7.8299   -0.0799   -0.4542 N   0  0  2  0  0  3           0  0  0
    1.3878    0.0000    0.0000 N   0  0  0  0  0  3           0  0  0
   -2.1944   -0.0206   -2.9547 N   0  0  1  0  0  3           0  0  0
    9.7864   -0.8725    1.4442 N   0  0  2  0  0  3           0  0  0
    0.0000    0.0000    0.0000 C   0  0  0  0  0  4           0  0  0
   -2.0797   -0.0078   -0.7113 C   0  0  0  0  0  4           0  0  0
    6.4589   -0.0503   -0.6135 C   0  0  0  0  0  4           0  0  0
   -0.7943   -0.0032   -1.1543 C   0  0  0  0  0  4           0  0  0
    3.6246    0.0010   -0.9384 C   0  0  0  0  0  4           0  0  0
   -4.6685   -1.4376   -4.5744 C   0  0  0  0  0  4           0  0  0
    5.8339   -0.5788   -1.7577 C   0  0  0  0  0  4           0  0  0
    5.6099    0.5090    0.3593 C   0  0  0  0  0  4           0  0  0
    4.4427   -0.5566   -1.9222 C   0  0  0  0  0  4           0  0  0
    4.2166    0.5374    0.2058 C   0  0  0  0  0  4           0  0  0
   -3.8628   -2.5099   -4.9879 C   0  0  0  0  0  4           0  0  0
   -5.9947   -1.6978   -4.2007 C   0  0  0  0  0  4           0  0  0
   -4.3745   -3.8079   -5.0331 C   0  0  0  0  0  4           0  0  0
   -6.5051   -2.9964   -4.2471 C   0  0  0  0  0  4           0  0  0
   -5.6954   -4.0510   -4.6631 C   0  0  0  0  0  4           0  0  0
    2.1565    0.0000   -1.1440 C   0  0  0  0  0  4           0  0  0
   -2.6286   -0.0316   -4.2693 C   0  0  0  0  0  4           0  0  0
   -4.1300   -0.0306   -4.5107 C   0  0  1  0  0  4           0  0  0
   -4.5041    2.0514   -5.5660 C   0  0  0  0  0  4           0  0  0
   -3.0974   -0.0199   -1.7568 C   0  0  0  0  0  4           0  0  0
   -0.7336   -0.0112   -2.6184 C   0  0  0  0  0  4           0  0  0
    8.5444    0.9456    0.3079 C   0  0  0  0  0  4           0  0  0
    8.6114   -1.2946   -0.6927 C   0  0  0  0  0  4           0  0  0
    8.9841    0.3459    1.6492 C   0  0  0  0  0  4           0  0  0
    9.0446   -1.8742    0.6586 C   0  0  0  0  0  4           0  0  0
   10.2039   -1.4342    2.7278 C   0  0  0  0  0  4           0  0  0
  1 25  2  0     0  0
  2 26  2  0     0  0
  3 27  1  0     0  0
  3 28  1  0     0  0
  4  5  1  0     0  0
  4 11  1  0     0  0
  5 10  2  0     0  0
  6 12  1  0     0  0
  6 31  1  0     0  0
  6 32  1  0     0  0
  7 10  1  0     0  0
  7 25  1  0     0  0
  8 26  1  0     0  0
  8 29  1  0     0  0
  8 30  1  0     0  0
  9 33  1  0     0  0
  9 34  1  0     0  0
  9 35  1  0     0  0
 10 13  1  0     0  0
 11 13  2  0     0  0
 11 29  1  0     0  0
 12 16  2  0     0  0
 12 17  1  0     0  0
 13 30  1  0     0  0
 14 18  2  0     0  0
 14 19  1  0     0  0
 14 25  1  0     0  0
 15 20  2  0     0  0
 15 21  1  0     0  0
 15 27  1  0     0  0
 16 18  1  0     0  0
 17 19  2  0     0  0
 20 22  1  0     0  0
 21 23  2  0     0  0
 22 24  2  0     0  0
 23 24  1  0     0  0
 26 27  1  0     0  0
 31 33  1  0     0  0
 32 34  1  0     0  0
M  END
> <standard_type>
pIC50

> <# Confs.>
25

> <canonical_smiles>
CN(CC1)CCN1C2=CC=C(C(NC3=NNC4=C3CN(C([C@H](C5=CC=CC=C5)OC)=O)C4)=O)C=C2

> <standard_relation>
=

> <Publication_ID>
nan

> <predicted_activity_value>
6.2839966563652006

> <actual_activity_value>
6.200659450546418

> <Compound>
20

> <standard_units>
nM

> hash
7939965660355082475

$$$$
19
XXILIB    08252103493D 0   0.00000     0.00000

 35 39  0     1  0            999 V2000
    1.7144    0.0000   -2.2911 O   0  0  0  0  0  2           0  0  0
   -1.8577   -0.0317   -5.2343 O   0  0  0  0  0  2           0  0  0
   -4.3409    0.6500   -5.7376 O   0  0  0  0  0  2           0  0  0
   -2.0475   -0.0071    0.6334 N   0  0  0  0  0  3           0  0  0
   -0.7770    0.0000    1.1066 N   0  0  0  0  0  3           0  0  0
    7.8299   -0.0799   -0.4542 N   0  0  2  0  0  3           0  0  0
    1.3878    0.0000    0.0000 N   0  0  0  0  0  3           0  0  0
   -2.1944   -0.0206   -2.9547 N   0  0  1  0  0  3           0  0  0
   10.6259   -0.2054    0.1060 N   0  0  2  0  0  3           0  0  0
    0.0000    0.0000    0.0000 C   0  0  0  0  0  4           0  0  0
   -2.0797   -0.0078   -0.7113 C   0  0  0  0  0  4           0  0  0
    6.4589   -0.0503   -0.6135 C   0  0  0  0  0  4           0  0  0
   -0.7943   -0.0032   -1.1543 C   0  0  0  0  0  4           0  0  0
    3.6246    0.0010   -0.9384 C   0  0  0  0  0  4           0  0  0
   -4.6685   -1.4376   -4.5744 C   0  0  0  0  0  4           0  0  0
    5.8339   -0.5788   -1.7577 C   0  0  0  0  0  4           0  0  0
    5.6099    0.5090    0.3593 C   0  0  0  0  0  4           0  0  0
    4.4427   -0.5566   -1.9222 C   0  0  0  0  0  4           0  0  0
    4.2166    0.5374    0.2058 C   0  0  0  0  0  4           0  0  0
   -3.8628   -2.5099   -4.9879 C   0  0  0  0  0  4           0  0  0
   -5.9947   -1.6978   -4.2007 C   0  0  0  0  0  4           0  0  0
   -4.3745   -3.8079   -5.0331 C   0  0  0  0  0  4           0  0  0
   -6.5051   -2.9964   -4.2471 C   0  0  0  0  0  4           0  0  0
   -5.6954   -4.0510   -4.6631 C   0  0  0  0  0  4           0  0  0
    2.1565    0.0000   -1.1440 C   0  0  0  0  0  4           0  0  0
   -2.6286   -0.0316   -4.2693 C   0  0  0  0  0  4           0  0  0
   -4.1300   -0.0306   -4.5107 C   0  0  1  0  0  4           0  0  0
   -5.5839    1.3378   -5.7762 C   0  0  0  0  0  4           0  0  0
   -3.0974   -0.0199   -1.7568 C   0  0  0  0  0  4           0  0  0
   -0.7336   -0.0112   -2.6184 C   0  0  0  0  0  4           0  0  0
    8.5181   -1.3751   -0.4397 C   0  0  0  0  0  4           0  0  0
    8.4888    1.0254    0.2506 C   0  0  0  0  0  4           0  0  0
   10.0041   -1.2107   -0.7630 C   0  0  0  0  0  4           0  0  0
    9.9761    1.0935   -0.1008 C   0  0  0  0  0  4           0  0  0
   12.0601   -0.1106   -0.1639 C   0  0  0  0  0  4           0  0  0
  1 25  2  0     0  0
  2 26  2  0     0  0
  3 27  1  0     0  0
  3 28  1  0     0  0
  4  5  1  0     0  0
  4 11  1  0     0  0
  5 10  2  0     0  0
  6 12  1  0     0  0
  6 31  1  0     0  0
  6 32  1  0     0  0
  7 10  1  0     0  0
  7 25  1  0     0  0
  8 26  1  0     0  0
  8 29  1  0     0  0
  8 30  1  0     0  0
  9 33  1  0     0  0
  9 34  1  0     0  0
  9 35  1  0     0  0
 10 13  1  0     0  0
 11 13  2  0     0  0
 11 29  1  0     0  0
 12 16  2  0     0  0
 12 17  1  0     0  0
 13 30  1  0     0  0
 14 18  2  0     0  0
 14 19  1  0     0  0
 14 25  1  0     0  0
 15 20  2  0     0  0
 15 21  1  0     0  0
 15 27  1  0     0  0
 16 18  1  0     0  0
 17 19  2  0     0  0
 20 22  1  0     0  0
 21 23  2  0     0  0
 22 24  2  0     0  0
 23 24  1  0     0  0
 26 27  1  0     0  0
 31 33  1  0     0  0
 32 34  1  0     0  0
M  END
> <standard_type>
pIC50

> <# Confs.>
25

> <canonical_smiles>
CN(CC1)CCN1C2=CC=C(C(NC3=NNC4=C3CN(C([C@H](C5=CC=CC=C5)OC)=O)C4)=O)C=C2

> <standard_relation>
=

> <Publication_ID>
nan

> <predicted_activity_value>
6.2839966563652006

> <actual_activity_value>
6.200659450546418

> <Compound>
20

> <standard_units>
nM

> hash
7939965660355082475

$$$$
19
XXILIB    08252103493D 0   0.00000     0.00000

 35 39  0     1  0            999 V2000
    1.7144   -0.0000   -2.2911 O   0  0  0  0  0  2           0  0  0
   -1.8577   -0.0317   -5.2343 O   0  0  0  0  0  2           0  0  0
   -4.3409    0.6500   -5.7376 O   0  0  0  0  0  2           0  0  0
   -2.0475   -0.0071    0.6334 N   0  0  0  0  0  3           0  0  0
   -0.7770    0.0000    1.1066 N   0  0  0  0  0  3           0  0  0
    7.8333    0.0386   -0.4788 N   0  0  2  0  0  3           0  0  0
    1.3878   -0.0000   -0.0000 N   0  0  0  0  0  3           0  0  0
   -2.1944   -0.0206   -2.9547 N   0  0  1  0  0  3           0  0  0
   10.6531   -0.1693   -0.0888 N   0  0  2  0  0  3           0  0  0
    0.0000    0.0000    0.0000 C   0  0  0  0  0  4           0  0  0
   -2.0797   -0.0078   -0.7113 C   0  0  0  0  0  4           0  0  0
    6.4607    0.0294   -0.6269 C   0  0  0  0  0  4           0  0  0
   -0.7943   -0.0032   -1.1543 C   0  0  0  0  0  4           0  0  0
    3.6246    0.0010   -0.9384 C   0  0  0  0  0  4           0  0  0
   -4.6685   -1.4376   -4.5744 C   0  0  0  0  0  4           0  0  0
    5.8344    0.5652   -1.7671 C   0  0  0  0  0  4           0  0  0
    5.6115   -0.5167    0.3530 C   0  0  0  0  0  4           0  0  0
    4.4424    0.5535   -1.9253 C   0  0  0  0  0  4           0  0  0
    4.2172   -0.5338    0.2063 C   0  0  0  0  0  4           0  0  0
   -3.8628   -2.5099   -4.9879 C   0  0  0  0  0  4           0  0  0
   -5.9947   -1.6978   -4.2007 C   0  0  0  0  0  4           0  0  0
   -4.3745   -3.8079   -5.0331 C   0  0  0  0  0  4           0  0  0
   -6.5051   -2.9964   -4.2471 C   0  0  0  0  0  4           0  0  0
   -5.6954   -4.0510   -4.6631 C   0  0  0  0  0  4           0  0  0
    2.1565    0.0000   -1.1440 C   0  0  0  0  0  4           0  0  0
   -2.6286   -0.0316   -4.2693 C   0  0  0  0  0  4           0  0  0
   -4.1300   -0.0306   -4.5107 C   0  0  1  0  0  4           0  0  0
   -5.5839    1.3378   -5.7762 C   0  0  0  0  0  4           0  0  0
   -3.0974   -0.0199   -1.7568 C   0  0  0  0  0  4           0  0  0
   -0.7336   -0.0112   -2.6184 C   0  0  0  0  0  4           0  0  0
    8.6618   -0.6568   -1.4694 C   0  0  0  0  0  4           0  0  0
    8.4035    0.1978    0.8635 C   0  0  0  0  0  4           0  0  0
   10.0992   -0.1340   -1.4469 C   0  0  0  0  0  4           0  0  0
    9.8513    0.6867    0.7923 C   0  0  0  0  0  4           0  0  0
   12.0499    0.2639   -0.0932 C   0  0  0  0  0  4           0  0  0
  1 25  2  0     0  0
  2 26  2  0     0  0
  3 27  1  0     0  0
  3 28  1  0     0  0
  4  5  1  0     0  0
  4 11  1  0     0  0
  5 10  2  0     0  0
  6 12  1  0     0  0
  6 31  1  0     0  0
  6 32  1  0     0  0
  7 10  1  0     0  0
  7 25  1  0     0  0
  8 26  1  0     0  0
  8 29  1  0     0  0
  8 30  1  0     0  0
  9 33  1  0     0  0
  9 34  1  0     0  0
  9 35  1  0     0  0
 10 13  1  0     0  0
 11 13  2  0     0  0
 11 29  1  0     0  0
 12 16  2  0     0  0
 12 17  1  0     0  0
 13 30  1  0     0  0
 14 18  2  0     0  0
 14 19  1  0     0  0
 14 25  1  0     0  0
 15 20  2  0     0  0
 15 21  1  0     0  0
 15 27  1  0     0  0
 16 18  1  0     0  0
 17 19  2  0     0  0
 20 22  1  0     0  0
 21 23  2  0     0  0
 22 24  2  0     0  0
 23 24  1  0     0  0
 26 27  1  0     0  0
 31 33  1  0     0  0
 32 34  1  0     0  0
M  END
> <standard_type>
pIC50

> <# Confs.>
25

> <canonical_smiles>
CN(CC1)CCN1C2=CC=C(C(NC3=NNC4=C3CN(C([C@H](C5=CC=CC=C5)OC)=O)C4)=O)C=C2

> <standard_relation>
=

> <Publication_ID>
nan

> <predicted_activity_value>
6.2839966563652006

> <actual_activity_value>
6.200659450546418

> <Compound>
20

> <standard_units>
nM

> hash
7939965660355082475

$$$$
19
XXILIB    08252103493D 0   0.00000     0.00000

 35 39  0     1  0            999 V2000
    1.7144    0.0000   -2.2911 O   0  0  0  0  0  2           0  0  0
   -1.8577   -0.0317   -5.2343 O   0  0  0  0  0  2           0  0  0
   -4.4196    1.1478   -5.2459 O   0  0  0  0  0  2           0  0  0
   -2.0475   -0.0071    0.6334 N   0  0  0  0  0  3           0  0  0
   -0.7770    0.0000    1.1066 N   0  0  0  0  0  3           0  0  0
    7.8010    0.0875   -0.2485 N   0  0  2  0  0  3           0  0  0
    1.3878   -0.0000    0.0000 N   0  0  0  0  0  3           0  0  0
   -2.1944   -0.0206   -2.9547 N   0  0  1  0  0  3           0  0  0
   10.6224   -0.0816    0.1492 N   0  0  2  0  0  3           0  0  0
    0.0000    0.0000    0.0000 C   0  0  0  0  0  4           0  0  0
   -2.0797   -0.0078   -0.7113 C   0  0  0  0  0  4           0  0  0
    6.4390    0.0560   -0.4720 C   0  0  0  0  0  4           0  0  0
   -0.7943   -0.0032   -1.1543 C   0  0  0  0  0  4           0  0  0
    3.6246    0.0010   -0.9384 C   0  0  0  0  0  4           0  0  0
   -4.5562   -1.2603   -5.2721 C   0  0  0  0  0  4           0  0  0
    5.5229    0.5835    0.4564 C   0  0  0  0  0  4           0  0  0
    5.8907   -0.5042   -1.6405 C   0  0  0  0  0  4           0  0  0
    4.1401    0.5594    0.2322 C   0  0  0  0  0  4           0  0  0
    4.5089   -0.5345   -1.8758 C   0  0  0  0  0  4           0  0  0
   -4.9788   -2.4215   -4.6066 C   0  0  0  0  0  4           0  0  0
   -4.5505   -1.2532   -6.6743 C   0  0  0  0  0  4           0  0  0
   -5.3783   -3.5486   -5.3267 C   0  0  0  0  0  4           0  0  0
   -4.9497   -2.3815   -7.3930 C   0  0  0  0  0  4           0  0  0
   -5.3633   -3.5287   -6.7196 C   0  0  0  0  0  4           0  0  0
    2.1565    0.0000   -1.1440 C   0  0  0  0  0  4           0  0  0
   -2.6286   -0.0316   -4.2693 C   0  0  0  0  0  4           0  0  0
   -4.1300   -0.0306   -4.5107 C   0  0  1  0  0  4           0  0  0
   -4.6901    2.2637   -4.4084 C   0  0  0  0  0  4           0  0  0
   -3.0974   -0.0199   -1.7568 C   0  0  0  0  0  4           0  0  0
   -0.7336   -0.0112   -2.6184 C   0  0  0  0  0  4           0  0  0
    8.7101    0.1688   -1.3966 C   0  0  0  0  0  4           0  0  0
    8.3359   -0.5203    0.9751 C   0  0  0  0  0  4           0  0  0
   10.0831    0.6939   -0.9734 C   0  0  0  0  0  4           0  0  0
    9.7238    0.0329    1.3032 C   0  0  0  0  0  4           0  0  0
   11.9649    0.3835    0.4959 C   0  0  0  0  0  4           0  0  0
  1 25  2  0     0  0
  2 26  2  0     0  0
  3 27  1  0     0  0
  3 28  1  0     0  0
  4  5  1  0     0  0
  4 11  1  0     0  0
  5 10  2  0     0  0
  6 12  1  0     0  0
  6 31  1  0     0  0
  6 32  1  0     0  0
  7 10  1  0     0  0
  7 25  1  0     0  0
  8 26  1  0     0  0
  8 29  1  0     0  0
  8 30  1  0     0  0
  9 33  1  0     0  0
  9 34  1  0     0  0
  9 35  1  0     0  0
 10 13  1  0     0  0
 11 13  2  0     0  0
 11 29  1  0     0  0
 12 16  2  0     0  0
 12 17  1  0     0  0
 13 30  1  0     0  0
 14 18  2  0     0  0
 14 19  1  0     0  0
 14 25  1  0     0  0
 15 20  2  0     0  0
 15 21  1  0     0  0
 15 27  1  0     0  0
 16 18  1  0     0  0
 17 19  2  0     0  0
 20 22  1  0     0  0
 21 23  2  0     0  0
 22 24  2  0     0  0
 23 24  1  0     0  0
 26 27  1  0     0  0
 31 33  1  0     0  0
 32 34  1  0     0  0
M  END
> <standard_type>
pIC50

> <# Confs.>
25

> <canonical_smiles>
CN(CC1)CCN1C2=CC=C(C(NC3=NNC4=C3CN(C([C@H](C5=CC=CC=C5)OC)=O)C4)=O)C=C2

> <standard_relation>
=

> <Publication_ID>
nan

> <predicted_activity_value>
6.2839966563652006

> <actual_activity_value>
6.200659450546418

> <Compound>
20

> <standard_units>
nM

> hash
7939965660355082475

$$$$
19
XXILIB    08252103493D 0   0.00000     0.00000

 35 39  0     1  0            999 V2000
    1.7144    0.0000   -2.2911 O   0  0  0  0  0  2           0  0  0
   -1.8577   -0.0317   -5.2343 O   0  0  0  0  0  2           0  0  0
   -4.4196    1.1478   -5.2459 O   0  0  0  0  0  2           0  0  0
   -2.0475   -0.0071    0.6334 N   0  0  0  0  0  3           0  0  0
   -0.7770    0.0000    1.1066 N   0  0  0  0  0  3           0  0  0
    7.8299   -0.0799   -0.4542 N   0  0  2  0  0  3           0  0  0
    1.3878    0.0000    0.0000 N   0  0  0  0  0  3           0  0  0
   -2.1944   -0.0206   -2.9547 N   0  0  1  0  0  3           0  0  0
   10.0298   -1.0822    1.0342 N   0  0  2  0  0  3           0  0  0
    0.0000    0.0000    0.0000 C   0  0  0  0  0  4           0  0  0
   -2.0797   -0.0078   -0.7113 C   0  0  0  0  0  4           0  0  0
    6.4589   -0.0503   -0.6135 C   0  0  0  0  0  4           0  0  0
   -0.7943   -0.0032   -1.1543 C   0  0  0  0  0  4           0  0  0
    3.6246    0.0010   -0.9384 C   0  0  0  0  0  4           0  0  0
   -4.5562   -1.2603   -5.2721 C   0  0  0  0  0  4           0  0  0
    5.8339   -0.5788   -1.7577 C   0  0  0  0  0  4           0  0  0
    5.6099    0.5090    0.3593 C   0  0  0  0  0  4           0  0  0
    4.4427   -0.5566   -1.9222 C   0  0  0  0  0  4           0  0  0
    4.2166    0.5374    0.2058 C   0  0  0  0  0  4           0  0  0
   -4.9788   -2.4215   -4.6066 C   0  0  0  0  0  4           0  0  0
   -4.5505   -1.2532   -6.6743 C   0  0  0  0  0  4           0  0  0
   -5.3783   -3.5486   -5.3267 C   0  0  0  0  0  4           0  0  0
   -4.9497   -2.3815   -7.3930 C   0  0  0  0  0  4           0  0  0
   -5.3633   -3.5287   -6.7196 C   0  0  0  0  0  4           0  0  0
    2.1565    0.0000   -1.1440 C   0  0  0  0  0  4           0  0  0
   -2.6286   -0.0316   -4.2693 C   0  0  0  0  0  4           0  0  0
   -4.1300   -0.0306   -4.5107 C   0  0  1  0  0  4           0  0  0
   -5.7139    1.6639   -4.9664 C   0  0  0  0  0  4           0  0  0
   -3.0974   -0.0199   -1.7568 C   0  0  0  0  0  4           0  0  0
   -0.7336   -0.0112   -2.6184 C   0  0  0  0  0  4           0  0  0
    8.6644   -1.1334   -1.0328 C   0  0  0  0  0  4           0  0  0
    8.5323    0.8081    0.4724 C   0  0  0  0  0  4           0  0  0
    9.2888   -1.9508    0.1041 C   0  0  0  0  0  4           0  0  0
    9.1573   -0.0343    1.5899 C   0  0  0  0  0  4           0  0  0
   10.6284   -1.8739    2.1079 C   0  0  0  0  0  4           0  0  0
  1 25  2  0     0  0
  2 26  2  0     0  0
  3 27  1  0     0  0
  3 28  1  0     0  0
  4  5  1  0     0  0
  4 11  1  0     0  0
  5 10  2  0     0  0
  6 12  1  0     0  0
  6 31  1  0     0  0
  6 32  1  0     0  0
  7 10  1  0     0  0
  7 25  1  0     0  0
  8 26  1  0     0  0
  8 29  1  0     0  0
  8 30  1  0     0  0
  9 33  1  0     0  0
  9 34  1  0     0  0
  9 35  1  0     0  0
 10 13  1  0     0  0
 11 13  2  0     0  0
 11 29  1  0     0  0
 12 16  2  0     0  0
 12 17  1  0     0  0
 13 30  1  0     0  0
 14 18  2  0     0  0
 14 19  1  0     0  0
 14 25  1  0     0  0
 15 20  2  0     0  0
 15 21  1  0     0  0
 15 27  1  0     0  0
 16 18  1  0     0  0
 17 19  2  0     0  0
 20 22  1  0     0  0
 21 23  2  0     0  0
 22 24  2  0     0  0
 23 24  1  0     0  0
 26 27  1  0     0  0
 31 33  1  0     0  0
 32 34  1  0     0  0
M  END
> <standard_type>
pIC50

> <# Confs.>
25

> <canonical_smiles>
CN(CC1)CCN1C2=CC=C(C(NC3=NNC4=C3CN(C([C@H](C5=CC=CC=C5)OC)=O)C4)=O)C=C2

> <standard_relation>
=

> <Publication_ID>
nan

> <predicted_activity_value>
6.2839966563652006

> <actual_activity_value>
6.200659450546418

> <Compound>
20

> <standard_units>
nM

> hash
7939965660355082475

$$$$
19
XXILIB    08252103493D 0   0.00000     0.00000

 35 39  0     1  0            999 V2000
    1.7144   -1.1455   -1.9841 O   0  0  0  0  0  2           0  0  0
   -1.8577   -0.0317   -5.2343 O   0  0  0  0  0  2           0  0  0
   -4.5275    1.3299   -4.5744 O   0  0  0  0  0  2           0  0  0
   -2.0475   -0.0071    0.6334 N   0  0  0  0  0  3           0  0  0
   -0.7770   -0.0000    1.1066 N   0  0  0  0  0  3           0  0  0
    7.8299   -0.2963   -0.3534 N   0  0  2  0  0  3           0  0  0
    1.3878    0.0000   -0.0000 N   0  0  0  0  0  3           0  0  0
   -2.1944   -0.0206   -2.9547 N   0  0  1  0  0  3           0  0  0
   10.6259   -0.1249    0.1945 N   0  0  2  0  0  3           0  0  0
    0.0000    0.0000    0.0000 C   0  0  0  0  0  4           0  0  0
   -2.0797   -0.0078   -0.7113 C   0  0  0  0  0  4           0  0  0
    6.4589   -0.3503   -0.5061 C   0  0  0  0  0  4           0  0  0
   -0.7943   -0.0032   -1.1543 C   0  0  0  0  0  4           0  0  0
    3.6246   -0.4683   -0.8132 C   0  0  0  0  0  4           0  0  0
   -4.4727   -0.7535   -5.7889 C   0  0  0  0  0  4           0  0  0
    5.8339   -1.3801   -1.2328 C   0  0  0  0  0  4           0  0  0
    5.6099    0.6204    0.0567 C   0  0  0  0  0  4           0  0  0
    4.4427   -1.4431   -1.3864 C   0  0  0  0  0  4           0  0  0
    4.2166    0.5683   -0.0905 C   0  0  0  0  0  4           0  0  0
   -4.7880   -2.1212   -5.7924 C   0  0  0  0  0  4           0  0  0
   -4.4966   -0.0546   -7.0043 C   0  0  0  0  0  4           0  0  0
   -5.1114   -2.7735   -6.9835 C   0  0  0  0  0  4           0  0  0
   -4.8197   -0.7086   -8.1946 C   0  0  0  0  0  4           0  0  0
   -5.1268   -2.0674   -8.1843 C   0  0  0  0  0  4           0  0  0
    2.1565   -0.5720   -0.9908 C   0  0  0  0  0  4           0  0  0
   -2.6286   -0.0316   -4.2693 C   0  0  0  0  0  4           0  0  0
   -4.1300   -0.0306   -4.5107 C   0  0  1  0  0  4           0  0  0
   -5.8527    1.5363   -4.1042 C   0  0  0  0  0  4           0  0  0
   -3.0974   -0.0199   -1.7568 C   0  0  0  0  0  4           0  0  0
   -0.7336   -0.0112   -2.6184 C   0  0  0  0  0  4           0  0  0
    8.5181   -1.4107    0.3067 C   0  0  0  0  0  4           0  0  0
    8.4888    1.0133   -0.2957 C   0  0  0  0  0  4           0  0  0
   10.0041   -1.4300   -0.0554 C   0  0  0  0  0  4           0  0  0
    9.9761    0.8966   -0.6341 C   0  0  0  0  0  4           0  0  0
   12.0601   -0.1777   -0.0866 C   0  0  0  0  0  4           0  0  0
  1 25  2  0     0  0
  2 26  2  0     0  0
  3 27  1  0     0  0
  3 28  1  0     0  0
  4  5  1  0     0  0
  4 11  1  0     0  0
  5 10  2  0     0  0
  6 12  1  0     0  0
  6 31  1  0     0  0
  6 32  1  0     0  0
  7 10  1  0     0  0
  7 25  1  0     0  0
  8 26  1  0     0  0
  8 29  1  0     0  0
  8 30  1  0     0  0
  9 33  1  0     0  0
  9 34  1  0     0  0
  9 35  1  0     0  0
 10 13  1  0     0  0
 11 13  2  0     0  0
 11 29  1  0     0  0
 12 16  2  0     0  0
 12 17  1  0     0  0
 13 30  1  0     0  0
 14 18  2  0     0  0
 14 19  1  0     0  0
 14 25  1  0     0  0
 15 20  2  0     0  0
 15 21  1  0     0  0
 15 27  1  0     0  0
 16 18  1  0     0  0
 17 19  2  0     0  0
 20 22  1  0     0  0
 21 23  2  0     0  0
 22 24  2  0     0  0
 23 24  1  0     0  0
 26 27  1  0     0  0
 31 33  1  0     0  0
 32 34  1  0     0  0
M  END
> <standard_type>
pIC50

> <# Confs.>
25

> <canonical_smiles>
CN(CC1)CCN1C2=CC=C(C(NC3=NNC4=C3CN(C([C@H](C5=CC=CC=C5)OC)=O)C4)=O)C=C2

> <standard_relation>
=

> <Publication_ID>
nan

> <predicted_activity_value>
6.2839966563652006

> <actual_activity_value>
6.200659450546418

> <Compound>
20

> <standard_units>
nM

> hash
7939965660355082475

$$$$
19
XXILIB    08252103493D 0   0.00000     0.00000

 35 39  0     1  0            999 V2000
    1.7144   -0.0000   -2.2911 O   0  0  0  0  0  2           0  0  0
   -1.8577   -0.0317   -5.2343 O   0  0  0  0  0  2           0  0  0
   -4.4196    1.1478   -5.2459 O   0  0  0  0  0  2           0  0  0
   -2.0475   -0.0071    0.6334 N   0  0  0  0  0  3           0  0  0
   -0.7770    0.0000    1.1066 N   0  0  0  0  0  3           0  0  0
    7.8333    0.0386   -0.4788 N   0  0  2  0  0  3           0  0  0
    1.3878   -0.0000   -0.0000 N   0  0  0  0  0  3           0  0  0
   -2.1944   -0.0206   -2.9547 N   0  0  1  0  0  3           0  0  0
   10.2131   -1.4955   -0.2719 N   0  0  2  0  0  3           0  0  0
    0.0000    0.0000    0.0000 C   0  0  0  0  0  4           0  0  0
   -2.0797   -0.0078   -0.7113 C   0  0  0  0  0  4           0  0  0
    6.4607    0.0294   -0.6269 C   0  0  0  0  0  4           0  0  0
   -0.7943   -0.0032   -1.1543 C   0  0  0  0  0  4           0  0  0
    3.6246    0.0010   -0.9384 C   0  0  0  0  0  4           0  0  0
   -4.5562   -1.2603   -5.2721 C   0  0  0  0  0  4           0  0  0
    5.8344    0.5652   -1.7671 C   0  0  0  0  0  4           0  0  0
    5.6115   -0.5167    0.3530 C   0  0  0  0  0  4           0  0  0
    4.4424    0.5535   -1.9253 C   0  0  0  0  0  4           0  0  0
    4.2172   -0.5338    0.2063 C   0  0  0  0  0  4           0  0  0
   -4.9788   -2.4215   -4.6066 C   0  0  0  0  0  4           0  0  0
   -4.5505   -1.2532   -6.6743 C   0  0  0  0  0  4           0  0  0
   -5.3783   -3.5486   -5.3267 C   0  0  0  0  0  4           0  0  0
   -4.9497   -2.3815   -7.3930 C   0  0  0  0  0  4           0  0  0
   -5.3633   -3.5287   -6.7196 C   0  0  0  0  0  4           0  0  0
    2.1565    0.0000   -1.1440 C   0  0  0  0  0  4           0  0  0
   -2.6286   -0.0316   -4.2693 C   0  0  0  0  0  4           0  0  0
   -4.1300   -0.0306   -4.5107 C   0  0  1  0  0  4           0  0  0
   -4.6901    2.2637   -4.4084 C   0  0  0  0  0  4           0  0  0
   -3.0974   -0.0199   -1.7568 C   0  0  0  0  0  4           0  0  0
   -0.7336   -0.0112   -2.6184 C   0  0  0  0  0  4           0  0  0
    8.7461   -0.0231   -1.6209 C   0  0  0  0  0  4           0  0  0
    8.4837   -0.1027    0.8240 C   0  0  0  0  0  4           0  0  0
    9.5220   -1.3442   -1.5635 C   0  0  0  0  0  4           0  0  0
    9.2619   -1.4229    0.8499 C   0  0  0  0  0  4           0  0  0
   10.9569   -2.7536   -0.2330 C   0  0  0  0  0  4           0  0  0
  1 25  2  0     0  0
  2 26  2  0     0  0
  3 27  1  0     0  0
  3 28  1  0     0  0
  4  5  1  0     0  0
  4 11  1  0     0  0
  5 10  2  0     0  0
  6 12  1  0     0  0
  6 31  1  0     0  0
  6 32  1  0     0  0
  7 10  1  0     0  0
  7 25  1  0     0  0
  8 26  1  0     0  0
  8 29  1  0     0  0
  8 30  1  0     0  0
  9 33  1  0     0  0
  9 34  1  0     0  0
  9 35  1  0     0  0
 10 13  1  0     0  0
 11 13  2  0     0  0
 11 29  1  0     0  0
 12 16  2  0     0  0
 12 17  1  0     0  0
 13 30  1  0     0  0
 14 18  2  0     0  0
 14 19  1  0     0  0
 14 25  1  0     0  0
 15 20  2  0     0  0
 15 21  1  0     0  0
 15 27  1  0     0  0
 16 18  1  0     0  0
 17 19  2  0     0  0
 20 22  1  0     0  0
 21 23  2  0     0  0
 22 24  2  0     0  0
 23 24  1  0     0  0
 26 27  1  0     0  0
 31 33  1  0     0  0
 32 34  1  0     0  0
M  END
> <standard_type>
pIC50

> <# Confs.>
25

> <canonical_smiles>
CN(CC1)CCN1C2=CC=C(C(NC3=NNC4=C3CN(C([C@H](C5=CC=CC=C5)OC)=O)C4)=O)C=C2

> <standard_relation>
=

> <Publication_ID>
nan

> <predicted_activity_value>
6.2839966563652006

> <actual_activity_value>
6.200659450546418

> <Compound>
20

> <standard_units>
nM

> hash
7939965660355082475

$$$$
19
XXILIB    08252103493D 0   0.00000     0.00000

 35 39  0     1  0            999 V2000
    1.7144    1.1455   -1.9841 O   0  0  0  0  0  2           0  0  0
   -1.8577   -0.0317   -5.2343 O   0  0  0  0  0  2           0  0  0
   -4.4196    1.1478   -5.2459 O   0  0  0  0  0  2           0  0  0
   -2.0475   -0.0071    0.6334 N   0  0  0  0  0  3           0  0  0
   -0.7770    0.0000    1.1066 N   0  0  0  0  0  3           0  0  0
    7.8333    0.2729   -0.3954 N   0  0  2  0  0  3           0  0  0
    1.3878   -0.0000   -0.0000 N   0  0  0  0  0  3           0  0  0
   -2.1944   -0.0206   -2.9547 N   0  0  1  0  0  3           0  0  0
   10.6359    0.0979    0.1164 N   0  0  2  0  0  3           0  0  0
    0.0000    0.0000    0.0000 C   0  0  0  0  0  4           0  0  0
   -2.0797   -0.0078   -0.7113 C   0  0  0  0  0  4           0  0  0
    6.4607    0.3389   -0.5282 C   0  0  0  0  0  4           0  0  0
   -0.7943   -0.0032   -1.1543 C   0  0  0  0  0  4           0  0  0
    3.6246    0.4700   -0.8122 C   0  0  0  0  0  4           0  0  0
   -4.5562   -1.2603   -5.2721 C   0  0  0  0  0  4           0  0  0
    5.8344    1.3730   -1.2478 C   0  0  0  0  0  4           0  0  0
    5.6115   -0.6240    0.0474 C   0  0  0  0  0  4           0  0  0
    4.4424    1.4420   -1.3906 C   0  0  0  0  0  4           0  0  0
    4.2172   -0.5654   -0.0883 C   0  0  0  0  0  4           0  0  0
   -4.9788   -2.4215   -4.6066 C   0  0  0  0  0  4           0  0  0
   -4.5505   -1.2532   -6.6743 C   0  0  0  0  0  4           0  0  0
   -5.3783   -3.5486   -5.3267 C   0  0  0  0  0  4           0  0  0
   -4.9497   -2.3815   -7.3930 C   0  0  0  0  0  4           0  0  0
   -5.3633   -3.5287   -6.7196 C   0  0  0  0  0  4           0  0  0
    2.1565    0.5720   -0.9908 C   0  0  0  0  0  4           0  0  0
   -2.6286   -0.0316   -4.2693 C   0  0  0  0  0  4           0  0  0
   -4.1300   -0.0306   -4.5107 C   0  0  1  0  0  4           0  0  0
   -5.7139    1.6639   -4.9664 C   0  0  0  0  0  4           0  0  0
   -3.0974   -0.0199   -1.7568 C   0  0  0  0  0  4           0  0  0
   -0.7336   -0.0112   -2.6184 C   0  0  0  0  0  4           0  0  0
    8.4740   -1.0395   -0.2600 C   0  0  0  0  0  4           0  0  0
    8.5492    1.4188    0.1762 C   0  0  0  0  0  4           0  0  0
    9.9566   -0.9673   -0.6296 C   0  0  0  0  0  4           0  0  0
   10.0288    1.3925   -0.2114 C   0  0  0  0  0  4           0  0  0
   12.0654    0.1085   -0.1917 C   0  0  0  0  0  4           0  0  0
  1 25  2  0     0  0
  2 26  2  0     0  0
  3 27  1  0     0  0
  3 28  1  0     0  0
  4  5  1  0     0  0
  4 11  1  0     0  0
  5 10  2  0     0  0
  6 12  1  0     0  0
  6 31  1  0     0  0
  6 32  1  0     0  0
  7 10  1  0     0  0
  7 25  1  0     0  0
  8 26  1  0     0  0
  8 29  1  0     0  0
  8 30  1  0     0  0
  9 33  1  0     0  0
  9 34  1  0     0  0
  9 35  1  0     0  0
 10 13  1  0     0  0
 11 13  2  0     0  0
 11 29  1  0     0  0
 12 16  2  0     0  0
 12 17  1  0     0  0
 13 30  1  0     0  0
 14 18  2  0     0  0
 14 19  1  0     0  0
 14 25  1  0     0  0
 15 20  2  0     0  0
 15 21  1  0     0  0
 15 27  1  0     0  0
 16 18  1  0     0  0
 17 19  2  0     0  0
 20 22  1  0     0  0
 21 23  2  0     0  0
 22 24  2  0     0  0
 23 24  1  0     0  0
 26 27  1  0     0  0
 31 33  1  0     0  0
 32 34  1  0     0  0
M  END
> <standard_type>
pIC50

> <# Confs.>
25

> <canonical_smiles>
CN(CC1)CCN1C2=CC=C(C(NC3=NNC4=C3CN(C([C@H](C5=CC=CC=C5)OC)=O)C4)=O)C=C2

> <standard_relation>
=

> <Publication_ID>
nan

> <predicted_activity_value>
6.2839966563652006

> <actual_activity_value>
6.200659450546418

> <Compound>
20

> <standard_units>
nM

> hash
7939965660355082475

$$$$
19
XXILIB    08252103493D 0   0.00000     0.00000

 35 39  0     1  0            999 V2000
    1.7144    0.0000    2.2911 O   0  0  0  0  0  2           0  0  0
   -1.8577   -0.0317   -5.2343 O   0  0  0  0  0  2           0  0  0
   -4.6370   -1.2084   -3.9036 O   0  0  0  0  0  2           0  0  0
   -2.0475   -0.0071    0.6334 N   0  0  0  0  0  3           0  0  0
   -0.7770    0.0000    1.1066 N   0  0  0  0  0  3           0  0  0
    7.8299    0.0799    0.4542 N   0  0  2  0  0  3           0  0  0
    1.3878   -0.0000    0.0000 N   0  0  0  0  0  3           0  0  0
   -2.1944   -0.0206   -2.9547 N   0  0  1  0  0  3           0  0  0
   10.6518   -0.0929    0.0614 N   0  0  2  0  0  3           0  0  0
    0.0000    0.0000    0.0000 C   0  0  0  0  0  4           0  0  0
   -2.0797   -0.0078   -0.7113 C   0  0  0  0  0  4           0  0  0
    6.4589    0.0503    0.6135 C   0  0  0  0  0  4           0  0  0
   -0.7943   -0.0032   -1.1543 C   0  0  0  0  0  4           0  0  0
    3.6246   -0.0010    0.9384 C   0  0  0  0  0  4           0  0  0
   -4.7718    1.1999   -3.9210 C   0  0  0  0  0  4           0  0  0
    5.8339    0.5788    1.7577 C   0  0  0  0  0  4           0  0  0
    5.6099   -0.5090   -0.3593 C   0  0  0  0  0  4           0  0  0
    4.4427    0.5566    1.9222 C   0  0  0  0  0  4           0  0  0
    4.2166   -0.5374   -0.2058 C   0  0  0  0  0  4           0  0  0
   -4.0893    2.4252   -3.8673 C   0  0  0  0  0  4           0  0  0
   -6.0825    1.1380   -3.4268 C   0  0  0  0  0  4           0  0  0
   -4.7012    3.5570   -3.3258 C   0  0  0  0  0  4           0  0  0
   -6.6928    2.2707   -2.8850 C   0  0  0  0  0  4           0  0  0
   -6.0024    3.4796   -2.8344 C   0  0  0  0  0  4           0  0  0
    2.1565   -0.0000    1.1440 C   0  0  0  0  0  4           0  0  0
   -2.6286   -0.0316   -4.2693 C   0  0  0  0  0  4           0  0  0
   -4.1300   -0.0306   -4.5107 C   0  0  1  0  0  4           0  0  0
   -4.6327   -2.3241   -4.7839 C   0  0  0  0  0  4           0  0  0
   -3.0974   -0.0199   -1.7568 C   0  0  0  0  0  4           0  0  0
   -0.7336   -0.0112   -2.6184 C   0  0  0  0  0  4           0  0  0
    8.3887    0.1602   -0.8996 C   0  0  0  0  0  4           0  0  0
    8.6796   -0.5287    1.4838 C   0  0  0  0  0  4           0  0  0
    9.8258    0.6835   -0.8700 C   0  0  0  0  0  4           0  0  0
   10.1050    0.0226    1.4178 C   0  0  0  0  0  4           0  0  0
   12.0384    0.3704    0.0257 C   0  0  0  0  0  4           0  0  0
  1 25  2  0     0  0
  2 26  2  0     0  0
  3 27  1  0     0  0
  3 28  1  0     0  0
  4  5  1  0     0  0
  4 11  1  0     0  0
  5 10  2  0     0  0
  6 12  1  0     0  0
  6 31  1  0     0  0
  6 32  1  0     0  0
  7 10  1  0     0  0
  7 25  1  0     0  0
  8 26  1  0     0  0
  8 29  1  0     0  0
  8 30  1  0     0  0
  9 33  1  0     0  0
  9 34  1  0     0  0
  9 35  1  0     0  0
 10 13  1  0     0  0
 11 13  2  0     0  0
 11 29  1  0     0  0
 12 16  2  0     0  0
 12 17  1  0     0  0
 13 30  1  0     0  0
 14 18  2  0     0  0
 14 19  1  0     0  0
 14 25  1  0     0  0
 15 20  2  0     0  0
 15 21  1  0     0  0
 15 27  1  0     0  0
 16 18  1  0     0  0
 17 19  2  0     0  0
 20 22  1  0     0  0
 21 23  2  0     0  0
 22 24  2  0     0  0
 23 24  1  0     0  0
 26 27  1  0     0  0
 31 33  1  0     0  0
 32 34  1  0     0  0
M  END
> <standard_type>
pIC50

> <# Confs.>
25

> <canonical_smiles>
CN(CC1)CCN1C2=CC=C(C(NC3=NNC4=C3CN(C([C@H](C5=CC=CC=C5)OC)=O)C4)=O)C=C2

> <standard_relation>
=

> <Publication_ID>
nan

> <predicted_activity_value>
6.2839966563652006

> <actual_activity_value>
6.200659450546418

> <Compound>
20

> <standard_units>
nM

> hash
7939965660355082475

$$$$
19
XXILIB    08252103493D 0   0.00000     0.00000

 35 39  0     1  0            999 V2000
    1.7144    0.0000    2.2911 O   0  0  0  0  0  2           0  0  0
   -1.8577   -0.0317   -5.2343 O   0  0  0  0  0  2           0  0  0
   -4.6370   -1.2084   -3.9036 O   0  0  0  0  0  2           0  0  0
   -2.0475   -0.0071    0.6334 N   0  0  0  0  0  3           0  0  0
   -0.7770    0.0000    1.1066 N   0  0  0  0  0  3           0  0  0
    7.8333   -0.0386    0.4788 N   0  0  2  0  0  3           0  0  0
    1.3878    0.0000    0.0000 N   0  0  0  0  0  3           0  0  0
   -2.1944   -0.0206   -2.9547 N   0  0  1  0  0  3           0  0  0
   10.6359   -0.1430   -0.0519 N   0  0  2  0  0  3           0  0  0
    0.0000    0.0000    0.0000 C   0  0  0  0  0  4           0  0  0
   -2.0797   -0.0078   -0.7113 C   0  0  0  0  0  4           0  0  0
    6.4607   -0.0294    0.6269 C   0  0  0  0  0  4           0  0  0
   -0.7943   -0.0032   -1.1543 C   0  0  0  0  0  4           0  0  0
    3.6246   -0.0010    0.9384 C   0  0  0  0  0  4           0  0  0
   -4.7718    1.1999   -3.9210 C   0  0  0  0  0  4           0  0  0
    5.8344   -0.5652    1.7671 C   0  0  0  0  0  4           0  0  0
    5.6115    0.5167   -0.3530 C   0  0  0  0  0  4           0  0  0
    4.4424   -0.5535    1.9253 C   0  0  0  0  0  4           0  0  0
    4.2172    0.5338   -0.2063 C   0  0  0  0  0  4           0  0  0
   -4.0893    2.4252   -3.8673 C   0  0  0  0  0  4           0  0  0
   -6.0825    1.1380   -3.4268 C   0  0  0  0  0  4           0  0  0
   -4.7012    3.5570   -3.3258 C   0  0  0  0  0  4           0  0  0
   -6.6928    2.2707   -2.8850 C   0  0  0  0  0  4           0  0  0
   -6.0024    3.4796   -2.8344 C   0  0  0  0  0  4           0  0  0
    2.1565    0.0000    1.1440 C   0  0  0  0  0  4           0  0  0
   -2.6286   -0.0316   -4.2693 C   0  0  0  0  0  4           0  0  0
   -4.1300   -0.0306   -4.5107 C   0  0  1  0  0  4           0  0  0
   -4.6327   -2.3241   -4.7839 C   0  0  0  0  0  4           0  0  0
   -3.0974   -0.0199   -1.7568 C   0  0  0  0  0  4           0  0  0
   -0.7336   -0.0112   -2.6184 C   0  0  0  0  0  4           0  0  0
    8.4740    1.0303   -0.2946 C   0  0  0  0  0  4           0  0  0
    8.5492   -1.3168    0.5568 C   0  0  0  0  0  4           0  0  0
    9.9566    1.1525    0.0616 C   0  0  0  0  0  4           0  0  0
   10.0288   -1.1003    0.8793 C   0  0  0  0  0  4           0  0  0
   12.0654    0.0019    0.2203 C   0  0  0  0  0  4           0  0  0
  1 25  2  0     0  0
  2 26  2  0     0  0
  3 27  1  0     0  0
  3 28  1  0     0  0
  4  5  1  0     0  0
  4 11  1  0     0  0
  5 10  2  0     0  0
  6 12  1  0     0  0
  6 31  1  0     0  0
  6 32  1  0     0  0
  7 10  1  0     0  0
  7 25  1  0     0  0
  8 26  1  0     0  0
  8 29  1  0     0  0
  8 30  1  0     0  0
  9 33  1  0     0  0
  9 34  1  0     0  0
  9 35  1  0     0  0
 10 13  1  0     0  0
 11 13  2  0     0  0
 11 29  1  0     0  0
 12 16  2  0     0  0
 12 17  1  0     0  0
 13 30  1  0     0  0
 14 18  2  0     0  0
 14 19  1  0     0  0
 14 25  1  0     0  0
 15 20  2  0     0  0
 15 21  1  0     0  0
 15 27  1  0     0  0
 16 18  1  0     0  0
 17 19  2  0     0  0
 20 22  1  0     0  0
 21 23  2  0     0  0
 22 24  2  0     0  0
 23 24  1  0     0  0
 26 27  1  0     0  0
 31 33  1  0     0  0
 32 34  1  0     0  0
M  END
> <standard_type>
pIC50

> <# Confs.>
25

> <canonical_smiles>
CN(CC1)CCN1C2=CC=C(C(NC3=NNC4=C3CN(C([C@H](C5=CC=CC=C5)OC)=O)C4)=O)C=C2

> <standard_relation>
=

> <Publication_ID>
nan

> <predicted_activity_value>
6.2839966563652006

> <actual_activity_value>
6.200659450546418

> <Compound>
20

> <standard_units>
nM

> hash
7939965660355082475

$$$$
9
XXILIB    08252103493D 0   0.00000     0.00000

 33 37  0     1  0            999 V2000
    1.7803    0.0000   -0.0000 S   0  0  0  0  0  2           0  0  0
    3.0588   -5.1651    4.5430 O   0  0  0  0  0  2           0  0  0
   -0.9940    0.0227    3.9348 N   0  0  0  0  0  3           0  0  0
   -0.7593    0.0238    5.2572 N   0  0  0  0  0  3           0  0  0
   -0.6499   -0.0000    1.1793 N   0  0  0  0  0  3           0  0  0
   -0.5925    0.0264   -1.2120 N   0  0  0  0  0  3           0  0  0
   -2.7679    0.0276    2.3298 N   0  0  0  0  0  3           0  0  0
   -2.5770    0.0695   -2.4961 N   0  0  2  0  0  3           0  0  0
    2.8891   -2.9100    5.1147 N   0  0  0  0  0  3           0  0  0
   -3.7451    0.4274   -5.0722 N   0  0  2  0  0  3           0  0  0
    0.0000    0.0000    0.0000 C   0  0  0  0  0  4           0  0  0
    2.0917   -0.8728    1.5118 C   0  0  0  0  0  4           0  0  0
   -2.3209    0.0325    3.6051 C   0  0  0  0  0  4           0  0  0
   -2.0016    0.0121    1.1403 C   0  0  0  0  0  4           0  0  0
   -1.9480    0.0445   -1.2661 C   0  0  0  0  0  4           0  0  0
   -1.9852    0.0405    5.7947 C   0  0  0  0  0  4           0  0  0
    2.6224   -2.2598    3.8945 C   0  0  0  0  0  4           0  0  0
    2.2162   -0.1779    2.7190 C   0  0  0  0  0  4           0  0  0
    2.2390   -2.2636    1.5013 C   0  0  0  0  0  4           0  0  0
   -2.6800    0.0398   -0.0788 C   0  0  0  0  0  4           0  0  0
   -2.9954    0.0455    4.8038 C   0  0  0  0  0  4           0  0  0
    2.4780   -0.8686    3.9046 C   0  0  0  0  0  4           0  0  0
    2.5012   -2.9554    2.6869 C   0  0  0  0  0  4           0  0  0
    3.0718   -4.2586    5.3680 C   0  0  0  0  0  4           0  0  0
   -1.7264    0.0751   -3.6883 C   0  0  0  0  0  4           0  0  0
   -3.9018    0.6835   -2.6171 C   0  0  0  0  0  4           0  0  0
   -2.5142   -0.3584   -4.9256 C   0  0  0  0  0  4           0  0  0
   -4.6026    0.2258   -3.8982 C   0  0  0  0  0  4           0  0  0
   -4.4517    0.0463   -6.2950 C   0  0  0  0  0  4           0  0  0
   -2.1573    0.0391    7.2644 C   0  0  0  0  0  4           0  0  0
    3.3356   -4.5603    6.7954 C   0  0  1  0  0  4           0  0  0
    2.2904   -4.2153    7.8257 C   0  0  0  0  0  4           0  0  0
    2.5748   -5.6506    7.5050 C   0  0  0  0  0  4           0  0  0
  1 11  1  0     0  0
  1 12  1  0     0  0
  2 24  2  0     0  0
  3  4  1  0     0  0
  3 13  1  0     0  0
  4 16  2  0     0  0
  5 11  1  0     0  0
  5 14  2  0     0  0
  6 11  2  0     0  0
  6 15  1  0     0  0
  7 13  1  0     0  0
  7 14  1  0     0  0
  8 15  1  0     0  0
  8 25  1  0     0  0
  8 26  1  0     0  0
  9 17  1  0     0  0
  9 24  1  0     0  0
 10 27  1  0     0  0
 10 28  1  0     0  0
 10 29  1  0     0  0
 12 18  2  0     0  0
 12 19  1  0     0  0
 13 21  2  0     0  0
 14 20  1  0     0  0
 15 20  2  0     0  0
 16 21  1  0     0  0
 16 30  1  0     0  0
 17 22  2  0     0  0
 17 23  1  0     0  0
 18 22  1  0     0  0
 19 23  2  0     0  0
 24 31  1  0     0  0
 25 27  1  0     0  0
 26 28  1  0     0  0
 31 32  1  0     0  0
 31 33  1  0     0  0
 32 33  1  0     0  0
M  END
> <standard_type>
pIC50

> <# Confs.>
25

> <canonical_smiles>
CC1=NNC(NC2=NC(SC3=CC=C(NC(C4CC4)=O)C=C3)=NC(N5CCN(C)CC5)=C2)=C1

> <standard_relation>
=

> <Publication_ID>
nan

> <predicted_activity_value>
7.886056647693163

> <actual_activity_value>
7.7447274948966935

> <Compound>
10

> <standard_units>
nM

> hash
7402733853492314349

$$$$
9
XXILIB    08252103493D 0   0.00000     0.00000

 33 37  0     1  0            999 V2000
    1.7803    0.0000   -0.0000 S   0  0  0  0  0  2           0  0  0
    3.0588   -5.1651    4.5430 O   0  0  0  0  0  2           0  0  0
   -0.9940    0.0227    3.9348 N   0  0  0  0  0  3           0  0  0
   -0.7593    0.0238    5.2572 N   0  0  0  0  0  3           0  0  0
   -0.6499   -0.0000    1.1793 N   0  0  0  0  0  3           0  0  0
   -0.5925    0.0264   -1.2120 N   0  0  0  0  0  3           0  0  0
   -2.7679    0.0276    2.3298 N   0  0  0  0  0  3           0  0  0
   -2.5770    0.0695   -2.4961 N   0  0  2  0  0  3           0  0  0
    2.8891   -2.9100    5.1147 N   0  0  0  0  0  3           0  0  0
   -3.7451    0.4274   -5.0722 N   0  0  2  0  0  3           0  0  0
    0.0000    0.0000    0.0000 C   0  0  0  0  0  4           0  0  0
    2.0917   -0.8728    1.5118 C   0  0  0  0  0  4           0  0  0
   -2.3209    0.0325    3.6051 C   0  0  0  0  0  4           0  0  0
   -2.0016    0.0121    1.1403 C   0  0  0  0  0  4           0  0  0
   -1.9480    0.0445   -1.2661 C   0  0  0  0  0  4           0  0  0
   -1.9852    0.0405    5.7947 C   0  0  0  0  0  4           0  0  0
    2.6224   -2.2598    3.8945 C   0  0  0  0  0  4           0  0  0
    2.2162   -0.1779    2.7190 C   0  0  0  0  0  4           0  0  0
    2.2390   -2.2636    1.5013 C   0  0  0  0  0  4           0  0  0
   -2.6800    0.0398   -0.0788 C   0  0  0  0  0  4           0  0  0
   -2.9954    0.0455    4.8038 C   0  0  0  0  0  4           0  0  0
    2.4780   -0.8686    3.9046 C   0  0  0  0  0  4           0  0  0
    2.5012   -2.9554    2.6869 C   0  0  0  0  0  4           0  0  0
    3.0718   -4.2586    5.3680 C   0  0  0  0  0  4           0  0  0
   -1.7264    0.0751   -3.6883 C   0  0  0  0  0  4           0  0  0
   -3.9018    0.6835   -2.6171 C   0  0  0  0  0  4           0  0  0
   -2.5142   -0.3584   -4.9256 C   0  0  0  0  0  4           0  0  0
   -4.6026    0.2258   -3.8982 C   0  0  0  0  0  4           0  0  0
   -4.4517    0.0463   -6.2950 C   0  0  0  0  0  4           0  0  0
   -2.1573    0.0391    7.2644 C   0  0  0  0  0  4           0  0  0
    3.3356   -4.5603    6.7954 C   0  0  1  0  0  4           0  0  0
    4.6427   -5.2047    7.1818 C   0  0  0  0  0  4           0  0  0
    4.3704   -3.7832    7.5678 C   0  0  0  0  0  4           0  0  0
  1 11  1  0     0  0
  1 12  1  0     0  0
  2 24  2  0     0  0
  3  4  1  0     0  0
  3 13  1  0     0  0
  4 16  2  0     0  0
  5 11  1  0     0  0
  5 14  2  0     0  0
  6 11  2  0     0  0
  6 15  1  0     0  0
  7 13  1  0     0  0
  7 14  1  0     0  0
  8 15  1  0     0  0
  8 25  1  0     0  0
  8 26  1  0     0  0
  9 17  1  0     0  0
  9 24  1  0     0  0
 10 27  1  0     0  0
 10 28  1  0     0  0
 10 29  1  0     0  0
 12 18  2  0     0  0
 12 19  1  0     0  0
 13 21  2  0     0  0
 14 20  1  0     0  0
 15 20  2  0     0  0
 16 21  1  0     0  0
 16 30  1  0     0  0
 17 22  2  0     0  0
 17 23  1  0     0  0
 18 22  1  0     0  0
 19 23  2  0     0  0
 24 31  1  0     0  0
 25 27  1  0     0  0
 26 28  1  0     0  0
 31 32  1  0     0  0
 31 33  1  0     0  0
 32 33  1  0     0  0
M  END
> <standard_type>
pIC50

> <# Confs.>
25

> <canonical_smiles>
CC1=NNC(NC2=NC(SC3=CC=C(NC(C4CC4)=O)C=C3)=NC(N5CCN(C)CC5)=C2)=C1

> <standard_relation>
=

> <Publication_ID>
nan

> <predicted_activity_value>
7.886056647693163

> <actual_activity_value>
7.7447274948966935

> <Compound>
10

> <standard_units>
nM

> hash
7402733853492314349

$$$$
9
XXILIB    08252103493D 0   0.00000     0.00000

 33 37  0     1  0            999 V2000
    1.7803    0.0000   -0.0000 S   0  0  0  0  0  2           0  0  0
    3.0588   -5.1651    4.5430 O   0  0  0  0  0  2           0  0  0
   -0.9940    0.0227    3.9348 N   0  0  0  0  0  3           0  0  0
   -0.7593    0.0238    5.2572 N   0  0  0  0  0  3           0  0  0
   -0.6499   -0.0000    1.1793 N   0  0  0  0  0  3           0  0  0
   -0.5925    0.0264   -1.2120 N   0  0  0  0  0  3           0  0  0
   -2.7679    0.0276    2.3298 N   0  0  0  0  0  3           0  0  0
   -2.5770    0.0695   -2.4961 N   0  0  2  0  0  3           0  0  0
    2.8891   -2.9100    5.1147 N   0  0  0  0  0  3           0  0  0
   -2.8893    1.9674   -4.5802 N   0  0  2  0  0  3           0  0  0
    0.0000    0.0000    0.0000 C   0  0  0  0  0  4           0  0  0
    2.0917   -0.8728    1.5118 C   0  0  0  0  0  4           0  0  0
   -2.3209    0.0325    3.6051 C   0  0  0  0  0  4           0  0  0
   -2.0016    0.0121    1.1403 C   0  0  0  0  0  4           0  0  0
   -1.9480    0.0445   -1.2661 C   0  0  0  0  0  4           0  0  0
   -1.9852    0.0405    5.7947 C   0  0  0  0  0  4           0  0  0
    2.6224   -2.2598    3.8945 C   0  0  0  0  0  4           0  0  0
    2.2162   -0.1779    2.7190 C   0  0  0  0  0  4           0  0  0
    2.2390   -2.2636    1.5013 C   0  0  0  0  0  4           0  0  0
   -2.6800    0.0398   -0.0788 C   0  0  0  0  0  4           0  0  0
   -2.9954    0.0455    4.8038 C   0  0  0  0  0  4           0  0  0
    2.4780   -0.8686    3.9046 C   0  0  0  0  0  4           0  0  0
    2.5012   -2.9554    2.6869 C   0  0  0  0  0  4           0  0  0
    3.0718   -4.2586    5.3680 C   0  0  0  0  0  4           0  0  0
   -3.8786    0.7089   -2.6897 C   0  0  0  0  0  4           0  0  0
   -1.7962   -0.0834   -3.7233 C   0  0  0  0  0  4           0  0  0
   -3.6572    2.0860   -3.3273 C   0  0  0  0  0  4           0  0  0
   -1.5950    1.2992   -4.3548 C   0  0  0  0  0  4           0  0  0
   -2.6904    3.2832   -5.1863 C   0  0  0  0  0  4           0  0  0
   -2.1573    0.0391    7.2644 C   0  0  0  0  0  4           0  0  0
    3.3356   -4.5603    6.7954 C   0  0  1  0  0  4           0  0  0
    2.2904   -4.2153    7.8257 C   0  0  0  0  0  4           0  0  0
    2.5748   -5.6506    7.5050 C   0  0  0  0  0  4           0  0  0
  1 11  1  0     0  0
  1 12  1  0     0  0
  2 24  2  0     0  0
  3  4  1  0     0  0
  3 13  1  0     0  0
  4 16  2  0     0  0
  5 11  1  0     0  0
  5 14  2  0     0  0
  6 11  2  0     0  0
  6 15  1  0     0  0
  7 13  1  0     0  0
  7 14  1  0     0  0
  8 15  1  0     0  0
  8 25  1  0     0  0
  8 26  1  0     0  0
  9 17  1  0     0  0
  9 24  1  0     0  0
 10 27  1  0     0  0
 10 28  1  0     0  0
 10 29  1  0     0  0
 12 18  2  0     0  0
 12 19  1  0     0  0
 13 21  2  0     0  0
 14 20  1  0     0  0
 15 20  2  0     0  0
 16 21  1  0     0  0
 16 30  1  0     0  0
 17 22  2  0     0  0
 17 23  1  0     0  0
 18 22  1  0     0  0
 19 23  2  0     0  0
 24 31  1  0     0  0
 25 27  1  0     0  0
 26 28  1  0     0  0
 31 32  1  0     0  0
 31 33  1  0     0  0
 32 33  1  0     0  0
M  END
> <standard_type>
pIC50

> <# Confs.>
25

> <canonical_smiles>
CC1=NNC(NC2=NC(SC3=CC=C(NC(C4CC4)=O)C=C3)=NC(N5CCN(C)CC5)=C2)=C1

> <standard_relation>
=

> <Publication_ID>
nan

> <predicted_activity_value>
7.886056647693163

> <actual_activity_value>
7.7447274948966935

> <Compound>
10

> <standard_units>
nM

> hash
7402733853492314349

$$$$
9
XXILIB    08252103493D 0   0.00000     0.00000

 33 37  0     1  0            999 V2000
    1.7803    0.0000   -0.0000 S   0  0  0  0  0  2           0  0  0
    3.0588   -5.1651    4.5430 O   0  0  0  0  0  2           0  0  0
   -0.9940    0.0227    3.9348 N   0  0  0  0  0  3           0  0  0
   -0.7593    0.0238    5.2572 N   0  0  0  0  0  3           0  0  0
   -0.6499    0.0000    1.1793 N   0  0  0  0  0  3           0  0  0
   -0.5925    0.0264   -1.2120 N   0  0  0  0  0  3           0  0  0
   -2.7679    0.0276    2.3298 N   0  0  0  0  0  3           0  0  0
   -2.5770    0.0695   -2.4961 N   0  0  2  0  0  3           0  0  0
    2.8891   -2.9100    5.1147 N   0  0  0  0  0  3           0  0  0
   -3.0012   -1.4851   -4.8290 N   0  0  2  0  0  3           0  0  0
    0.0000    0.0000    0.0000 C   0  0  0  0  0  4           0  0  0
    2.0917   -0.8728    1.5118 C   0  0  0  0  0  4           0  0  0
   -2.3209    0.0325    3.6051 C   0  0  0  0  0  4           0  0  0
   -2.0016    0.0121    1.1403 C   0  0  0  0  0  4           0  0  0
   -1.9480    0.0445   -1.2661 C   0  0  0  0  0  4           0  0  0
   -1.9852    0.0405    5.7947 C   0  0  0  0  0  4           0  0  0
    2.6224   -2.2598    3.8945 C   0  0  0  0  0  4           0  0  0
    2.2162   -0.1779    2.7190 C   0  0  0  0  0  4           0  0  0
    2.2390   -2.2636    1.5013 C   0  0  0  0  0  4           0  0  0
   -2.6800    0.0398   -0.0788 C   0  0  0  0  0  4           0  0  0
   -2.9954    0.0455    4.8038 C   0  0  0  0  0  4           0  0  0
    2.4780   -0.8686    3.9046 C   0  0  0  0  0  4           0  0  0
    2.5012   -2.9554    2.6869 C   0  0  0  0  0  4           0  0  0
    3.0718   -4.2586    5.3680 C   0  0  0  0  0  4           0  0  0
   -3.8929   -0.5244   -2.7273 C   0  0  0  0  0  4           0  0  0
   -1.8285    0.3871   -3.7112 C   0  0  0  0  0  4           0  0  0
   -3.7240   -1.7861   -3.5812 C   0  0  0  0  0  4           0  0  0
   -1.6834   -0.8891   -4.5483 C   0  0  0  0  0  4           0  0  0
   -2.8566   -2.6920   -5.6421 C   0  0  0  0  0  4           0  0  0
   -2.1573    0.0391    7.2644 C   0  0  0  0  0  4           0  0  0
    3.3356   -4.5603    6.7954 C   0  0  1  0  0  4           0  0  0
    2.2904   -4.2153    7.8257 C   0  0  0  0  0  4           0  0  0
    2.5748   -5.6506    7.5050 C   0  0  0  0  0  4           0  0  0
  1 11  1  0     0  0
  1 12  1  0     0  0
  2 24  2  0     0  0
  3  4  1  0     0  0
  3 13  1  0     0  0
  4 16  2  0     0  0
  5 11  1  0     0  0
  5 14  2  0     0  0
  6 11  2  0     0  0
  6 15  1  0     0  0
  7 13  1  0     0  0
  7 14  1  0     0  0
  8 15  1  0     0  0
  8 25  1  0     0  0
  8 26  1  0     0  0
  9 17  1  0     0  0
  9 24  1  0     0  0
 10 27  1  0     0  0
 10 28  1  0     0  0
 10 29  1  0     0  0
 12 18  2  0     0  0
 12 19  1  0     0  0
 13 21  2  0     0  0
 14 20  1  0     0  0
 15 20  2  0     0  0
 16 21  1  0     0  0
 16 30  1  0     0  0
 17 22  2  0     0  0
 17 23  1  0     0  0
 18 22  1  0     0  0
 19 23  2  0     0  0
 24 31  1  0     0  0
 25 27  1  0     0  0
 26 28  1  0     0  0
 31 32  1  0     0  0
 31 33  1  0     0  0
 32 33  1  0     0  0
M  END
> <standard_type>
pIC50

> <# Confs.>
25

> <canonical_smiles>
CC1=NNC(NC2=NC(SC3=CC=C(NC(C4CC4)=O)C=C3)=NC(N5CCN(C)CC5)=C2)=C1

> <standard_relation>
=

> <Publication_ID>
nan

> <predicted_activity_value>
7.886056647693163

> <actual_activity_value>
7.7447274948966935

> <Compound>
10

> <standard_units>
nM

> hash
7402733853492314349

$$$$
9
XXILIB    08252103493D 0   0.00000     0.00000

 33 37  0     1  0            999 V2000
    1.7803    0.0000   -0.0000 S   0  0  0  0  0  2           0  0  0
    3.0588   -5.1651    4.5430 O   0  0  0  0  0  2           0  0  0
   -0.9940    0.0227    3.9348 N   0  0  0  0  0  3           0  0  0
   -0.7593    0.0238    5.2572 N   0  0  0  0  0  3           0  0  0
   -0.6499   -0.0000    1.1793 N   0  0  0  0  0  3           0  0  0
   -0.5925    0.0264   -1.2120 N   0  0  0  0  0  3           0  0  0
   -2.7679    0.0276    2.3298 N   0  0  0  0  0  3           0  0  0
   -2.5770    0.0695   -2.4961 N   0  0  2  0  0  3           0  0  0
    2.8891   -2.9100    5.1147 N   0  0  0  0  0  3           0  0  0
   -2.8893    1.9674   -4.5802 N   0  0  2  0  0  3           0  0  0
    0.0000    0.0000    0.0000 C   0  0  0  0  0  4           0  0  0
    2.0917   -0.8728    1.5118 C   0  0  0  0  0  4           0  0  0
   -2.3209    0.0325    3.6051 C   0  0  0  0  0  4           0  0  0
   -2.0016    0.0121    1.1403 C   0  0  0  0  0  4           0  0  0
   -1.9480    0.0445   -1.2661 C   0  0  0  0  0  4           0  0  0
   -1.9852    0.0405    5.7947 C   0  0  0  0  0  4           0  0  0
    2.6224   -2.2598    3.8945 C   0  0  0  0  0  4           0  0  0
    2.2162   -0.1779    2.7190 C   0  0  0  0  0  4           0  0  0
    2.2390   -2.2636    1.5013 C   0  0  0  0  0  4           0  0  0
   -2.6800    0.0398   -0.0788 C   0  0  0  0  0  4           0  0  0
   -2.9954    0.0455    4.8038 C   0  0  0  0  0  4           0  0  0
    2.4780   -0.8686    3.9046 C   0  0  0  0  0  4           0  0  0
    2.5012   -2.9554    2.6869 C   0  0  0  0  0  4           0  0  0
    3.0718   -4.2586    5.3680 C   0  0  0  0  0  4           0  0  0
   -3.8786    0.7089   -2.6897 C   0  0  0  0  0  4           0  0  0
   -1.7962   -0.0834   -3.7233 C   0  0  0  0  0  4           0  0  0
   -3.6572    2.0860   -3.3273 C   0  0  0  0  0  4           0  0  0
   -1.5950    1.2992   -4.3548 C   0  0  0  0  0  4           0  0  0
   -2.6904    3.2832   -5.1863 C   0  0  0  0  0  4           0  0  0
   -2.1573    0.0391    7.2644 C   0  0  0  0  0  4           0  0  0
    3.3356   -4.5603    6.7954 C   0  0  1  0  0  4           0  0  0
    4.6427   -5.2047    7.1818 C   0  0  0  0  0  4           0  0  0
    4.3704   -3.7832    7.5678 C   0  0  0  0  0  4           0  0  0
  1 11  1  0     0  0
  1 12  1  0     0  0
  2 24  2  0     0  0
  3  4  1  0     0  0
  3 13  1  0     0  0
  4 16  2  0     0  0
  5 11  1  0     0  0
  5 14  2  0     0  0
  6 11  2  0     0  0
  6 15  1  0     0  0
  7 13  1  0     0  0
  7 14  1  0     0  0
  8 15  1  0     0  0
  8 25  1  0     0  0
  8 26  1  0     0  0
  9 17  1  0     0  0
  9 24  1  0     0  0
 10 27  1  0     0  0
 10 28  1  0     0  0
 10 29  1  0     0  0
 12 18  2  0     0  0
 12 19  1  0     0  0
 13 21  2  0     0  0
 14 20  1  0     0  0
 15 20  2  0     0  0
 16 21  1  0     0  0
 16 30  1  0     0  0
 17 22  2  0     0  0
 17 23  1  0     0  0
 18 22  1  0     0  0
 19 23  2  0     0  0
 24 31  1  0     0  0
 25 27  1  0     0  0
 26 28  1  0     0  0
 31 32  1  0     0  0
 31 33  1  0     0  0
 32 33  1  0     0  0
M  END
> <standard_type>
pIC50

> <# Confs.>
25

> <canonical_smiles>
CC1=NNC(NC2=NC(SC3=CC=C(NC(C4CC4)=O)C=C3)=NC(N5CCN(C)CC5)=C2)=C1

> <standard_relation>
=

> <Publication_ID>
nan

> <predicted_activity_value>
7.886056647693163

> <actual_activity_value>
7.7447274948966935

> <Compound>
10

> <standard_units>
nM

> hash
7402733853492314349

$$$$
9
XXILIB    08252103493D 0   0.00000     0.00000

 33 37  0     1  0            999 V2000
    1.7803   -0.0000   -0.0000 S   0  0  0  0  0  2           0  0  0
    3.0588   -2.2017    6.5169 O   0  0  0  0  0  2           0  0  0
   -0.9940    0.0227    3.9348 N   0  0  0  0  0  3           0  0  0
   -0.7593    0.0238    5.2572 N   0  0  0  0  0  3           0  0  0
   -0.6499   -0.0000    1.1793 N   0  0  0  0  0  3           0  0  0
   -0.5925    0.0264   -1.2120 N   0  0  0  0  0  3           0  0  0
   -2.7679    0.0276    2.3298 N   0  0  0  0  0  3           0  0  0
   -2.5770    0.0695   -2.4961 N   0  0  2  0  0  3           0  0  0
    2.8891    0.0372    5.8844 N   0  0  0  0  0  3           0  0  0
   -3.7451    0.4274   -5.0722 N   0  0  2  0  0  3           0  0  0
    0.0000    0.0000    0.0000 C   0  0  0  0  0  4           0  0  0
    2.0917   -0.0000    1.7457 C   0  0  0  0  0  4           0  0  0
   -2.3209    0.0325    3.6051 C   0  0  0  0  0  4           0  0  0
   -2.0016    0.0121    1.1403 C   0  0  0  0  0  4           0  0  0
   -1.9480    0.0445   -1.2661 C   0  0  0  0  0  4           0  0  0
   -1.9852    0.0405    5.7947 C   0  0  0  0  0  4           0  0  0
    2.6224   -0.0098    4.5027 C   0  0  0  0  0  4           0  0  0
    2.2162    1.2055    2.4437 C   0  0  0  0  0  4           0  0  0
    2.2390   -1.2097    2.4320 C   0  0  0  0  0  4           0  0  0
   -2.6800    0.0398   -0.0788 C   0  0  0  0  0  4           0  0  0
   -2.9954    0.0455    4.8038 C   0  0  0  0  0  4           0  0  0
    2.4780    1.2000    3.8158 C   0  0  0  0  0  4           0  0  0
    2.5012   -1.2160    3.8046 C   0  0  0  0  0  4           0  0  0
    3.0718   -1.0041    6.7782 C   0  0  0  0  0  4           0  0  0
   -1.7264    0.0751   -3.6883 C   0  0  0  0  0  4           0  0  0
   -3.9018    0.6835   -2.6171 C   0  0  0  0  0  4           0  0  0
   -2.5142   -0.3584   -4.9256 C   0  0  0  0  0  4           0  0  0
   -4.6026    0.2258   -3.8982 C   0  0  0  0  0  4           0  0  0
   -4.4517    0.0463   -6.2950 C   0  0  0  0  0  4           0  0  0
   -2.1573    0.0391    7.2644 C   0  0  0  0  0  4           0  0  0
    3.3356   -0.5516    8.1651 C   0  0  1  0  0  4           0  0  0
    2.2904    0.2623    8.8849 C   0  0  0  0  0  4           0  0  0
    2.5748   -1.1411    9.3248 C   0  0  0  0  0  4           0  0  0
  1 11  1  0     0  0
  1 12  1  0     0  0
  2 24  2  0     0  0
  3  4  1  0     0  0
  3 13  1  0     0  0
  4 16  2  0     0  0
  5 11  1  0     0  0
  5 14  2  0     0  0
  6 11  2  0     0  0
  6 15  1  0     0  0
  7 13  1  0     0  0
  7 14  1  0     0  0
  8 15  1  0     0  0
  8 25  1  0     0  0
  8 26  1  0     0  0
  9 17  1  0     0  0
  9 24  1  0     0  0
 10 27  1  0     0  0
 10 28  1  0     0  0
 10 29  1  0     0  0
 12 18  2  0     0  0
 12 19  1  0     0  0
 13 21  2  0     0  0
 14 20  1  0     0  0
 15 20  2  0     0  0
 16 21  1  0     0  0
 16 30  1  0     0  0
 17 22  2  0     0  0
 17 23  1  0     0  0
 18 22  1  0     0  0
 19 23  2  0     0  0
 24 31  1  0     0  0
 25 27  1  0     0  0
 26 28  1  0     0  0
 31 32  1  0     0  0
 31 33  1  0     0  0
 32 33  1  0     0  0
M  END
> <standard_type>
pIC50

> <# Confs.>
25

> <canonical_smiles>
CC1=NNC(NC2=NC(SC3=CC=C(NC(C4CC4)=O)C=C3)=NC(N5CCN(C)CC5)=C2)=C1

> <standard_relation>
=

> <Publication_ID>
nan

> <predicted_activity_value>
7.886056647693163

> <actual_activity_value>
7.7447274948966935

> <Compound>
10

> <standard_units>
nM

> hash
7402733853492314349

$$$$
9
XXILIB    08252103493D 0   0.00000     0.00000

 33 37  0     1  0            999 V2000
    1.7803    0.0000   -0.0000 S   0  0  0  0  0  2           0  0  0
    3.0588   -5.1651    4.5430 O   0  0  0  0  0  2           0  0  0
   -0.9940    0.0227    3.9348 N   0  0  0  0  0  3           0  0  0
   -0.7593    0.0238    5.2572 N   0  0  0  0  0  3           0  0  0
   -0.6499    0.0000    1.1793 N   0  0  0  0  0  3           0  0  0
   -0.5925    0.0264   -1.2120 N   0  0  0  0  0  3           0  0  0
   -2.7679    0.0276    2.3298 N   0  0  0  0  0  3           0  0  0
   -2.5770    0.0695   -2.4961 N   0  0  2  0  0  3           0  0  0
    2.8891   -2.9100    5.1147 N   0  0  0  0  0  3           0  0  0
   -3.0012   -1.4851   -4.8290 N   0  0  2  0  0  3           0  0  0
    0.0000    0.0000    0.0000 C   0  0  0  0  0  4           0  0  0
    2.0917   -0.8728    1.5118 C   0  0  0  0  0  4           0  0  0
   -2.3209    0.0325    3.6051 C   0  0  0  0  0  4           0  0  0
   -2.0016    0.0121    1.1403 C   0  0  0  0  0  4           0  0  0
   -1.9480    0.0445   -1.2661 C   0  0  0  0  0  4           0  0  0
   -1.9852    0.0405    5.7947 C   0  0  0  0  0  4           0  0  0
    2.6224   -2.2598    3.8945 C   0  0  0  0  0  4           0  0  0
    2.2162   -0.1779    2.7190 C   0  0  0  0  0  4           0  0  0
    2.2390   -2.2636    1.5013 C   0  0  0  0  0  4           0  0  0
   -2.6800    0.0398   -0.0788 C   0  0  0  0  0  4           0  0  0
   -2.9954    0.0455    4.8038 C   0  0  0  0  0  4           0  0  0
    2.4780   -0.8686    3.9046 C   0  0  0  0  0  4           0  0  0
    2.5012   -2.9554    2.6869 C   0  0  0  0  0  4           0  0  0
    3.0718   -4.2586    5.3680 C   0  0  0  0  0  4           0  0  0
   -3.8929   -0.5244   -2.7273 C   0  0  0  0  0  4           0  0  0
   -1.8285    0.3871   -3.7112 C   0  0  0  0  0  4           0  0  0
   -3.7240   -1.7861   -3.5812 C   0  0  0  0  0  4           0  0  0
   -1.6834   -0.8891   -4.5483 C   0  0  0  0  0  4           0  0  0
   -2.8566   -2.6920   -5.6421 C   0  0  0  0  0  4           0  0  0
   -2.1573    0.0391    7.2644 C   0  0  0  0  0  4           0  0  0
    3.3356   -4.5603    6.7954 C   0  0  1  0  0  4           0  0  0
    4.6427   -5.2047    7.1818 C   0  0  0  0  0  4           0  0  0
    4.3704   -3.7832    7.5678 C   0  0  0  0  0  4           0  0  0
  1 11  1  0     0  0
  1 12  1  0     0  0
  2 24  2  0     0  0
  3  4  1  0     0  0
  3 13  1  0     0  0
  4 16  2  0     0  0
  5 11  1  0     0  0
  5 14  2  0     0  0
  6 11  2  0     0  0
  6 15  1  0     0  0
  7 13  1  0     0  0
  7 14  1  0     0  0
  8 15  1  0     0  0
  8 25  1  0     0  0
  8 26  1  0     0  0
  9 17  1  0     0  0
  9 24  1  0     0  0
 10 27  1  0     0  0
 10 28  1  0     0  0
 10 29  1  0     0  0
 12 18  2  0     0  0
 12 19  1  0     0  0
 13 21  2  0     0  0
 14 20  1  0     0  0
 15 20  2  0     0  0
 16 21  1  0     0  0
 16 30  1  0     0  0
 17 22  2  0     0  0
 17 23  1  0     0  0
 18 22  1  0     0  0
 19 23  2  0     0  0
 24 31  1  0     0  0
 25 27  1  0     0  0
 26 28  1  0     0  0
 31 32  1  0     0  0
 31 33  1  0     0  0
 32 33  1  0     0  0
M  END
> <standard_type>
pIC50

> <# Confs.>
25

> <canonical_smiles>
CC1=NNC(NC2=NC(SC3=CC=C(NC(C4CC4)=O)C=C3)=NC(N5CCN(C)CC5)=C2)=C1

> <standard_relation>
=

> <Publication_ID>
nan

> <predicted_activity_value>
7.886056647693163

> <actual_activity_value>
7.7447274948966935

> <Compound>
10

> <standard_units>
nM

> hash
7402733853492314349

$$$$
9
XXILIB    08252103493D 0   0.00000     0.00000

 33 37  0     1  0            999 V2000
    1.7803   -0.0000   -0.0000 S   0  0  0  0  0  2           0  0  0
    3.0588   -2.2017    6.5169 O   0  0  0  0  0  2           0  0  0
   -0.9940    0.0227    3.9348 N   0  0  0  0  0  3           0  0  0
   -0.7593    0.0238    5.2572 N   0  0  0  0  0  3           0  0  0
   -0.6499   -0.0000    1.1793 N   0  0  0  0  0  3           0  0  0
   -0.5925    0.0264   -1.2120 N   0  0  0  0  0  3           0  0  0
   -2.7679    0.0276    2.3298 N   0  0  0  0  0  3           0  0  0
   -2.5770    0.0695   -2.4961 N   0  0  2  0  0  3           0  0  0
    2.8891    0.0372    5.8844 N   0  0  0  0  0  3           0  0  0
   -3.7451    0.4274   -5.0722 N   0  0  2  0  0  3           0  0  0
    0.0000    0.0000    0.0000 C   0  0  0  0  0  4           0  0  0
    2.0917   -0.0000    1.7457 C   0  0  0  0  0  4           0  0  0
   -2.3209    0.0325    3.6051 C   0  0  0  0  0  4           0  0  0
   -2.0016    0.0121    1.1403 C   0  0  0  0  0  4           0  0  0
   -1.9480    0.0445   -1.2661 C   0  0  0  0  0  4           0  0  0
   -1.9852    0.0405    5.7947 C   0  0  0  0  0  4           0  0  0
    2.6224   -0.0098    4.5027 C   0  0  0  0  0  4           0  0  0
    2.2162    1.2055    2.4437 C   0  0  0  0  0  4           0  0  0
    2.2390   -1.2097    2.4320 C   0  0  0  0  0  4           0  0  0
   -2.6800    0.0398   -0.0788 C   0  0  0  0  0  4           0  0  0
   -2.9954    0.0455    4.8038 C   0  0  0  0  0  4           0  0  0
    2.4780    1.2000    3.8158 C   0  0  0  0  0  4           0  0  0
    2.5012   -1.2160    3.8046 C   0  0  0  0  0  4           0  0  0
    3.0718   -1.0041    6.7782 C   0  0  0  0  0  4           0  0  0
   -1.7264    0.0751   -3.6883 C   0  0  0  0  0  4           0  0  0
   -3.9018    0.6835   -2.6171 C   0  0  0  0  0  4           0  0  0
   -2.5142   -0.3584   -4.9256 C   0  0  0  0  0  4           0  0  0
   -4.6026    0.2258   -3.8982 C   0  0  0  0  0  4           0  0  0
   -4.4517    0.0463   -6.2950 C   0  0  0  0  0  4           0  0  0
   -2.1573    0.0391    7.2644 C   0  0  0  0  0  4           0  0  0
    3.3356   -0.5516    8.1651 C   0  0  1  0  0  4           0  0  0
    4.6427   -0.9165    8.8219 C   0  0  0  0  0  4           0  0  0
    4.3704    0.5076    8.4455 C   0  0  0  0  0  4           0  0  0
  1 11  1  0     0  0
  1 12  1  0     0  0
  2 24  2  0     0  0
  3  4  1  0     0  0
  3 13  1  0     0  0
  4 16  2  0     0  0
  5 11  1  0     0  0
  5 14  2  0     0  0
  6 11  2  0     0  0
  6 15  1  0     0  0
  7 13  1  0     0  0
  7 14  1  0     0  0
  8 15  1  0     0  0
  8 25  1  0     0  0
  8 26  1  0     0  0
  9 17  1  0     0  0
  9 24  1  0     0  0
 10 27  1  0     0  0
 10 28  1  0     0  0
 10 29  1  0     0  0
 12 18  2  0     0  0
 12 19  1  0     0  0
 13 21  2  0     0  0
 14 20  1  0     0  0
 15 20  2  0     0  0
 16 21  1  0     0  0
 16 30  1  0     0  0
 17 22  2  0     0  0
 17 23  1  0     0  0
 18 22  1  0     0  0
 19 23  2  0     0  0
 24 31  1  0     0  0
 25 27  1  0     0  0
 26 28  1  0     0  0
 31 32  1  0     0  0
 31 33  1  0     0  0
 32 33  1  0     0  0
M  END
> <standard_type>
pIC50

> <# Confs.>
25

> <canonical_smiles>
CC1=NNC(NC2=NC(SC3=CC=C(NC(C4CC4)=O)C=C3)=NC(N5CCN(C)CC5)=C2)=C1

> <standard_relation>
=

> <Publication_ID>
nan

> <predicted_activity_value>
7.886056647693163

> <actual_activity_value>
7.7447274948966935

> <Compound>
10

> <standard_units>
nM

> hash
7402733853492314349

$$$$
9
XXILIB    08252103493D 0   0.00000     0.00000

 33 37  0     1  0            999 V2000
    1.7803   -0.0000   -0.0000 S   0  0  0  0  0  2           0  0  0
    3.0588   -2.2017    6.5169 O   0  0  0  0  0  2           0  0  0
   -0.9940    0.0227    3.9348 N   0  0  0  0  0  3           0  0  0
   -0.7593    0.0238    5.2572 N   0  0  0  0  0  3           0  0  0
   -0.6499   -0.0000    1.1793 N   0  0  0  0  0  3           0  0  0
   -0.5925    0.0264   -1.2120 N   0  0  0  0  0  3           0  0  0
   -2.7679    0.0276    2.3298 N   0  0  0  0  0  3           0  0  0
   -2.5770    0.0695   -2.4961 N   0  0  2  0  0  3           0  0  0
    2.8891    0.0372    5.8844 N   0  0  0  0  0  3           0  0  0
   -2.8893    1.9674   -4.5802 N   0  0  2  0  0  3           0  0  0
    0.0000    0.0000    0.0000 C   0  0  0  0  0  4           0  0  0
    2.0917   -0.0000    1.7457 C   0  0  0  0  0  4           0  0  0
   -2.3209    0.0325    3.6051 C   0  0  0  0  0  4           0  0  0
   -2.0016    0.0121    1.1403 C   0  0  0  0  0  4           0  0  0
   -1.9480    0.0445   -1.2661 C   0  0  0  0  0  4           0  0  0
   -1.9852    0.0405    5.7947 C   0  0  0  0  0  4           0  0  0
    2.6224   -0.0098    4.5027 C   0  0  0  0  0  4           0  0  0
    2.2162    1.2055    2.4437 C   0  0  0  0  0  4           0  0  0
    2.2390   -1.2097    2.4320 C   0  0  0  0  0  4           0  0  0
   -2.6800    0.0398   -0.0788 C   0  0  0  0  0  4           0  0  0
   -2.9954    0.0455    4.8038 C   0  0  0  0  0  4           0  0  0
    2.4780    1.2000    3.8158 C   0  0  0  0  0  4           0  0  0
    2.5012   -1.2160    3.8046 C   0  0  0  0  0  4           0  0  0
    3.0718   -1.0041    6.7782 C   0  0  0  0  0  4           0  0  0
   -3.8786    0.7089   -2.6897 C   0  0  0  0  0  4           0  0  0
   -1.7962   -0.0834   -3.7233 C   0  0  0  0  0  4           0  0  0
   -3.6572    2.0860   -3.3273 C   0  0  0  0  0  4           0  0  0
   -1.5950    1.2992   -4.3548 C   0  0  0  0  0  4           0  0  0
   -2.6904    3.2832   -5.1863 C   0  0  0  0  0  4           0  0  0
   -2.1573    0.0391    7.2644 C   0  0  0  0  0  4           0  0  0
    3.3356   -0.5516    8.1651 C   0  0  1  0  0  4           0  0  0
    2.2904    0.2623    8.8849 C   0  0  0  0  0  4           0  0  0
    2.5748   -1.1411    9.3248 C   0  0  0  0  0  4           0  0  0
  1 11  1  0     0  0
  1 12  1  0     0  0
  2 24  2  0     0  0
  3  4  1  0     0  0
  3 13  1  0     0  0
  4 16  2  0     0  0
  5 11  1  0     0  0
  5 14  2  0     0  0
  6 11  2  0     0  0
  6 15  1  0     0  0
  7 13  1  0     0  0
  7 14  1  0     0  0
  8 15  1  0     0  0
  8 25  1  0     0  0
  8 26  1  0     0  0
  9 17  1  0     0  0
  9 24  1  0     0  0
 10 27  1  0     0  0
 10 28  1  0     0  0
 10 29  1  0     0  0
 12 18  2  0     0  0
 12 19  1  0     0  0
 13 21  2  0     0  0
 14 20  1  0     0  0
 15 20  2  0     0  0
 16 21  1  0     0  0
 16 30  1  0     0  0
 17 22  2  0     0  0
 17 23  1  0     0  0
 18 22  1  0     0  0
 19 23  2  0     0  0
 24 31  1  0     0  0
 25 27  1  0     0  0
 26 28  1  0     0  0
 31 32  1  0     0  0
 31 33  1  0     0  0
 32 33  1  0     0  0
M  END
> <standard_type>
pIC50

> <# Confs.>
25

> <canonical_smiles>
CC1=NNC(NC2=NC(SC3=CC=C(NC(C4CC4)=O)C=C3)=NC(N5CCN(C)CC5)=C2)=C1

> <standard_relation>
=

> <Publication_ID>
nan

> <predicted_activity_value>
7.886056647693163

> <actual_activity_value>
7.7447274948966935

> <Compound>
10

> <standard_units>
nM

> hash
7402733853492314349

$$$$
9
XXILIB    08252103493D 0   0.00000     0.00000

 33 37  0     1  0            999 V2000
    1.7803   -0.0000   -0.0000 S   0  0  0  0  0  2           0  0  0
    3.0588   -2.2017    6.5169 O   0  0  0  0  0  2           0  0  0
   -0.9940    0.0227    3.9348 N   0  0  0  0  0  3           0  0  0
   -0.7593    0.0238    5.2572 N   0  0  0  0  0  3           0  0  0
   -0.6499    0.0000    1.1793 N   0  0  0  0  0  3           0  0  0
   -0.5925    0.0264   -1.2120 N   0  0  0  0  0  3           0  0  0
   -2.7679    0.0276    2.3298 N   0  0  0  0  0  3           0  0  0
   -2.5770    0.0695   -2.4961 N   0  0  2  0  0  3           0  0  0
    2.8891    0.0372    5.8844 N   0  0  0  0  0  3           0  0  0
   -3.0012   -1.4851   -4.8290 N   0  0  2  0  0  3           0  0  0
    0.0000    0.0000    0.0000 C   0  0  0  0  0  4           0  0  0
    2.0917   -0.0000    1.7457 C   0  0  0  0  0  4           0  0  0
   -2.3209    0.0325    3.6051 C   0  0  0  0  0  4           0  0  0
   -2.0016    0.0121    1.1403 C   0  0  0  0  0  4           0  0  0
   -1.9480    0.0445   -1.2661 C   0  0  0  0  0  4           0  0  0
   -1.9852    0.0405    5.7947 C   0  0  0  0  0  4           0  0  0
    2.6224   -0.0098    4.5027 C   0  0  0  0  0  4           0  0  0
    2.2162    1.2055    2.4437 C   0  0  0  0  0  4           0  0  0
    2.2390   -1.2097    2.4320 C   0  0  0  0  0  4           0  0  0
   -2.6800    0.0398   -0.0788 C   0  0  0  0  0  4           0  0  0
   -2.9954    0.0455    4.8038 C   0  0  0  0  0  4           0  0  0
    2.4780    1.2000    3.8158 C   0  0  0  0  0  4           0  0  0
    2.5012   -1.2160    3.8046 C   0  0  0  0  0  4           0  0  0
    3.0718   -1.0041    6.7782 C   0  0  0  0  0  4           0  0  0
   -3.8929   -0.5244   -2.7273 C   0  0  0  0  0  4           0  0  0
   -1.8285    0.3871   -3.7112 C   0  0  0  0  0  4           0  0  0
   -3.7240   -1.7861   -3.5812 C   0  0  0  0  0  4           0  0  0
   -1.6834   -0.8891   -4.5483 C   0  0  0  0  0  4           0  0  0
   -2.8566   -2.6920   -5.6421 C   0  0  0  0  0  4           0  0  0
   -2.1573    0.0391    7.2644 C   0  0  0  0  0  4           0  0  0
    3.3356   -0.5516    8.1651 C   0  0  1  0  0  4           0  0  0
    2.2904    0.2623    8.8849 C   0  0  0  0  0  4           0  0  0
    2.5748   -1.1411    9.3248 C   0  0  0  0  0  4           0  0  0
  1 11  1  0     0  0
  1 12  1  0     0  0
  2 24  2  0     0  0
  3  4  1  0     0  0
  3 13  1  0     0  0
  4 16  2  0     0  0
  5 11  1  0     0  0
  5 14  2  0     0  0
  6 11  2  0     0  0
  6 15  1  0     0  0
  7 13  1  0     0  0
  7 14  1  0     0  0
  8 15  1  0     0  0
  8 25  1  0     0  0
  8 26  1  0     0  0
  9 17  1  0     0  0
  9 24  1  0     0  0
 10 27  1  0     0  0
 10 28  1  0     0  0
 10 29  1  0     0  0
 12 18  2  0     0  0
 12 19  1  0     0  0
 13 21  2  0     0  0
 14 20  1  0     0  0
 15 20  2  0     0  0
 16 21  1  0     0  0
 16 30  1  0     0  0
 17 22  2  0     0  0
 17 23  1  0     0  0
 18 22  1  0     0  0
 19 23  2  0     0  0
 24 31  1  0     0  0
 25 27  1  0     0  0
 26 28  1  0     0  0
 31 32  1  0     0  0
 31 33  1  0     0  0
 32 33  1  0     0  0
M  END
> <standard_type>
pIC50

> <# Confs.>
25

> <canonical_smiles>
CC1=NNC(NC2=NC(SC3=CC=C(NC(C4CC4)=O)C=C3)=NC(N5CCN(C)CC5)=C2)=C1

> <standard_relation>
=

> <Publication_ID>
nan

> <predicted_activity_value>
7.886056647693163

> <actual_activity_value>
7.7447274948966935

> <Compound>
10

> <standard_units>
nM

> hash
7402733853492314349

$$$$
9
XXILIB    08252103493D 0   0.00000     0.00000

 33 37  0     1  0            999 V2000
    1.7803    0.0000   -0.0000 S   0  0  0  0  0  2           0  0  0
    3.0588   -6.7446    1.3517 O   0  0  0  0  0  2           0  0  0
   -0.9940    0.0227    3.9348 N   0  0  0  0  0  3           0  0  0
   -0.7593    0.0238    5.2572 N   0  0  0  0  0  3           0  0  0
   -0.6499   -0.0000    1.1793 N   0  0  0  0  0  3           0  0  0
   -0.5925    0.0264   -1.2120 N   0  0  0  0  0  3           0  0  0
   -2.7679    0.0276    2.3298 N   0  0  0  0  0  3           0  0  0
   -2.5770    0.0695   -2.4961 N   0  0  2  0  0  3           0  0  0
    2.8891   -5.0774    2.9744 N   0  0  0  0  0  3           0  0  0
   -3.7451    0.4274   -5.0722 N   0  0  2  0  0  3           0  0  0
    0.0000    0.0000    0.0000 C   0  0  0  0  0  4           0  0  0
    2.0917   -1.5118    0.8728 C   0  0  0  0  0  4           0  0  0
   -2.3209    0.0325    3.6051 C   0  0  0  0  0  4           0  0  0
   -2.0016    0.0121    1.1403 C   0  0  0  0  0  4           0  0  0
   -1.9480    0.0445   -1.2661 C   0  0  0  0  0  4           0  0  0
   -1.9852    0.0405    5.7947 C   0  0  0  0  0  4           0  0  0
    2.6224   -3.9043    2.2429 C   0  0  0  0  0  4           0  0  0
    2.2162   -1.5135    2.2658 C   0  0  0  0  0  4           0  0  0
    2.2390   -2.7110    0.1684 C   0  0  0  0  0  4           0  0  0
   -2.6800    0.0398   -0.0788 C   0  0  0  0  0  4           0  0  0
   -2.9954    0.0455    4.8038 C   0  0  0  0  0  4           0  0  0
    2.4780   -2.7046    2.9472 C   0  0  0  0  0  4           0  0  0
    2.5012   -3.9029    0.8493 C   0  0  0  0  0  4           0  0  0
    3.0718   -6.3721    2.5195 C   0  0  0  0  0  4           0  0  0
   -1.7264    0.0751   -3.6883 C   0  0  0  0  0  4           0  0  0
   -3.9018    0.6835   -2.6171 C   0  0  0  0  0  4           0  0  0
   -2.5142   -0.3584   -4.9256 C   0  0  0  0  0  4           0  0  0
   -4.6026    0.2258   -3.8982 C   0  0  0  0  0  4           0  0  0
   -4.4517    0.0463   -6.2950 C   0  0  0  0  0  4           0  0  0
   -2.1573    0.0391    7.2644 C   0  0  0  0  0  4           0  0  0
    3.3356   -7.3470    3.6048 C   0  0  1  0  0  4           0  0  0
    2.2904   -7.5634    4.6696 C   0  0  0  0  0  4           0  0  0
    2.5748   -8.6461    3.6742 C   0  0  0  0  0  4           0  0  0
  1 11  1  0     0  0
  1 12  1  0     0  0
  2 24  2  0     0  0
  3  4  1  0     0  0
  3 13  1  0     0  0
  4 16  2  0     0  0
  5 11  1  0     0  0
  5 14  2  0     0  0
  6 11  2  0     0  0
  6 15  1  0     0  0
  7 13  1  0     0  0
  7 14  1  0     0  0
  8 15  1  0     0  0
  8 25  1  0     0  0
  8 26  1  0     0  0
  9 17  1  0     0  0
  9 24  1  0     0  0
 10 27  1  0     0  0
 10 28  1  0     0  0
 10 29  1  0     0  0
 12 18  2  0     0  0
 12 19  1  0     0  0
 13 21  2  0     0  0
 14 20  1  0     0  0
 15 20  2  0     0  0
 16 21  1  0     0  0
 16 30  1  0     0  0
 17 22  2  0     0  0
 17 23  1  0     0  0
 18 22  1  0     0  0
 19 23  2  0     0  0
 24 31  1  0     0  0
 25 27  1  0     0  0
 26 28  1  0     0  0
 31 32  1  0     0  0
 31 33  1  0     0  0
 32 33  1  0     0  0
M  END
> <standard_type>
pIC50

> <# Confs.>
25

> <canonical_smiles>
CC1=NNC(NC2=NC(SC3=CC=C(NC(C4CC4)=O)C=C3)=NC(N5CCN(C)CC5)=C2)=C1

> <standard_relation>
=

> <Publication_ID>
nan

> <predicted_activity_value>
7.886056647693163

> <actual_activity_value>
7.7447274948966935

> <Compound>
10

> <standard_units>
nM

> hash
7402733853492314349

$$$$
9
XXILIB    08252103493D 0   0.00000     0.00000

 33 37  0     1  0            999 V2000
    1.7803    0.0000   -0.0000 S   0  0  0  0  0  2           0  0  0
    3.0588   -6.7446    1.3517 O   0  0  0  0  0  2           0  0  0
   -0.9940    0.0227    3.9348 N   0  0  0  0  0  3           0  0  0
   -0.7593    0.0238    5.2572 N   0  0  0  0  0  3           0  0  0
   -0.6499   -0.0000    1.1793 N   0  0  0  0  0  3           0  0  0
   -0.5925    0.0264   -1.2120 N   0  0  0  0  0  3           0  0  0
   -2.7679    0.0276    2.3298 N   0  0  0  0  0  3           0  0  0
   -2.5770    0.0695   -2.4961 N   0  0  2  0  0  3           0  0  0
    2.8891   -5.0774    2.9744 N   0  0  0  0  0  3           0  0  0
   -3.7451    0.4274   -5.0722 N   0  0  2  0  0  3           0  0  0
    0.0000    0.0000    0.0000 C   0  0  0  0  0  4           0  0  0
    2.0917   -1.5118    0.8728 C   0  0  0  0  0  4           0  0  0
   -2.3209    0.0325    3.6051 C   0  0  0  0  0  4           0  0  0
   -2.0016    0.0121    1.1403 C   0  0  0  0  0  4           0  0  0
   -1.9480    0.0445   -1.2661 C   0  0  0  0  0  4           0  0  0
   -1.9852    0.0405    5.7947 C   0  0  0  0  0  4           0  0  0
    2.6224   -3.9043    2.2429 C   0  0  0  0  0  4           0  0  0
    2.2162   -1.5135    2.2658 C   0  0  0  0  0  4           0  0  0
    2.2390   -2.7110    0.1684 C   0  0  0  0  0  4           0  0  0
   -2.6800    0.0398   -0.0788 C   0  0  0  0  0  4           0  0  0
   -2.9954    0.0455    4.8038 C   0  0  0  0  0  4           0  0  0
    2.4780   -2.7046    2.9472 C   0  0  0  0  0  4           0  0  0
    2.5012   -3.9029    0.8493 C   0  0  0  0  0  4           0  0  0
    3.0718   -6.3721    2.5195 C   0  0  0  0  0  4           0  0  0
   -1.7264    0.0751   -3.6883 C   0  0  0  0  0  4           0  0  0
   -3.9018    0.6835   -2.6171 C   0  0  0  0  0  4           0  0  0
   -2.5142   -0.3584   -4.9256 C   0  0  0  0  0  4           0  0  0
   -4.6026    0.2258   -3.8982 C   0  0  0  0  0  4           0  0  0
   -4.4517    0.0463   -6.2950 C   0  0  0  0  0  4           0  0  0
   -2.1573    0.0391    7.2644 C   0  0  0  0  0  4           0  0  0
    3.3356   -7.3470    3.6048 C   0  0  1  0  0  4           0  0  0
    4.6427   -8.0983    3.6173 C   0  0  0  0  0  4           0  0  0
    4.3704   -7.0602    4.6623 C   0  0  0  0  0  4           0  0  0
  1 11  1  0     0  0
  1 12  1  0     0  0
  2 24  2  0     0  0
  3  4  1  0     0  0
  3 13  1  0     0  0
  4 16  2  0     0  0
  5 11  1  0     0  0
  5 14  2  0     0  0
  6 11  2  0     0  0
  6 15  1  0     0  0
  7 13  1  0     0  0
  7 14  1  0     0  0
  8 15  1  0     0  0
  8 25  1  0     0  0
  8 26  1  0     0  0
  9 17  1  0     0  0
  9 24  1  0     0  0
 10 27  1  0     0  0
 10 28  1  0     0  0
 10 29  1  0     0  0
 12 18  2  0     0  0
 12 19  1  0     0  0
 13 21  2  0     0  0
 14 20  1  0     0  0
 15 20  2  0     0  0
 16 21  1  0     0  0
 16 30  1  0     0  0
 17 22  2  0     0  0
 17 23  1  0     0  0
 18 22  1  0     0  0
 19 23  2  0     0  0
 24 31  1  0     0  0
 25 27  1  0     0  0
 26 28  1  0     0  0
 31 32  1  0     0  0
 31 33  1  0     0  0
 32 33  1  0     0  0
M  END
> <standard_type>
pIC50

> <# Confs.>
25

> <canonical_smiles>
CC1=NNC(NC2=NC(SC3=CC=C(NC(C4CC4)=O)C=C3)=NC(N5CCN(C)CC5)=C2)=C1

> <standard_relation>
=

> <Publication_ID>
nan

> <predicted_activity_value>
7.886056647693163

> <actual_activity_value>
7.7447274948966935

> <Compound>
10

> <standard_units>
nM

> hash
7402733853492314349

$$$$
9
XXILIB    08252103493D 0   0.00000     0.00000

 33 37  0     1  0            999 V2000
    1.7803   -0.0000   -0.0000 S   0  0  0  0  0  2           0  0  0
    3.0588   -2.2017    6.5169 O   0  0  0  0  0  2           0  0  0
   -0.9940    0.0227    3.9348 N   0  0  0  0  0  3           0  0  0
   -0.7593    0.0238    5.2572 N   0  0  0  0  0  3           0  0  0
   -0.6499   -0.0000    1.1793 N   0  0  0  0  0  3           0  0  0
   -0.5925    0.0264   -1.2120 N   0  0  0  0  0  3           0  0  0
   -2.7679    0.0276    2.3298 N   0  0  0  0  0  3           0  0  0
   -2.5770    0.0695   -2.4961 N   0  0  2  0  0  3           0  0  0
    2.8891    0.0372    5.8844 N   0  0  0  0  0  3           0  0  0
   -2.8893    1.9674   -4.5802 N   0  0  2  0  0  3           0  0  0
    0.0000    0.0000    0.0000 C   0  0  0  0  0  4           0  0  0
    2.0917   -0.0000    1.7457 C   0  0  0  0  0  4           0  0  0
   -2.3209    0.0325    3.6051 C   0  0  0  0  0  4           0  0  0
   -2.0016    0.0121    1.1403 C   0  0  0  0  0  4           0  0  0
   -1.9480    0.0445   -1.2661 C   0  0  0  0  0  4           0  0  0
   -1.9852    0.0405    5.7947 C   0  0  0  0  0  4           0  0  0
    2.6224   -0.0098    4.5027 C   0  0  0  0  0  4           0  0  0
    2.2162    1.2055    2.4437 C   0  0  0  0  0  4           0  0  0
    2.2390   -1.2097    2.4320 C   0  0  0  0  0  4           0  0  0
   -2.6800    0.0398   -0.0788 C   0  0  0  0  0  4           0  0  0
   -2.9954    0.0455    4.8038 C   0  0  0  0  0  4           0  0  0
    2.4780    1.2000    3.8158 C   0  0  0  0  0  4           0  0  0
    2.5012   -1.2160    3.8046 C   0  0  0  0  0  4           0  0  0
    3.0718   -1.0041    6.7782 C   0  0  0  0  0  4           0  0  0
   -3.8786    0.7089   -2.6897 C   0  0  0  0  0  4           0  0  0
   -1.7962   -0.0834   -3.7233 C   0  0  0  0  0  4           0  0  0
   -3.6572    2.0860   -3.3273 C   0  0  0  0  0  4           0  0  0
   -1.5950    1.2992   -4.3548 C   0  0  0  0  0  4           0  0  0
   -2.6904    3.2832   -5.1863 C   0  0  0  0  0  4           0  0  0
   -2.1573    0.0391    7.2644 C   0  0  0  0  0  4           0  0  0
    3.3356   -0.5516    8.1651 C   0  0  1  0  0  4           0  0  0
    4.6427   -0.9165    8.8219 C   0  0  0  0  0  4           0  0  0
    4.3704    0.5076    8.4455 C   0  0  0  0  0  4           0  0  0
  1 11  1  0     0  0
  1 12  1  0     0  0
  2 24  2  0     0  0
  3  4  1  0     0  0
  3 13  1  0     0  0
  4 16  2  0     0  0
  5 11  1  0     0  0
  5 14  2  0     0  0
  6 11  2  0     0  0
  6 15  1  0     0  0
  7 13  1  0     0  0
  7 14  1  0     0  0
  8 15  1  0     0  0
  8 25  1  0     0  0
  8 26  1  0     0  0
  9 17  1  0     0  0
  9 24  1  0     0  0
 10 27  1  0     0  0
 10 28  1  0     0  0
 10 29  1  0     0  0
 12 18  2  0     0  0
 12 19  1  0     0  0
 13 21  2  0     0  0
 14 20  1  0     0  0
 15 20  2  0     0  0
 16 21  1  0     0  0
 16 30  1  0     0  0
 17 22  2  0     0  0
 17 23  1  0     0  0
 18 22  1  0     0  0
 19 23  2  0     0  0
 24 31  1  0     0  0
 25 27  1  0     0  0
 26 28  1  0     0  0
 31 32  1  0     0  0
 31 33  1  0     0  0
 32 33  1  0     0  0
M  END
> <standard_type>
pIC50

> <# Confs.>
25

> <canonical_smiles>
CC1=NNC(NC2=NC(SC3=CC=C(NC(C4CC4)=O)C=C3)=NC(N5CCN(C)CC5)=C2)=C1

> <standard_relation>
=

> <Publication_ID>
nan

> <predicted_activity_value>
7.886056647693163

> <actual_activity_value>
7.7447274948966935

> <Compound>
10

> <standard_units>
nM

> hash
7402733853492314349

$$$$
9
XXILIB    08252103493D 0   0.00000     0.00000

 33 37  0     1  0            999 V2000
    1.7803   -0.0000   -0.0000 S   0  0  0  0  0  2           0  0  0
    3.0588   -2.2017    6.5169 O   0  0  0  0  0  2           0  0  0
   -0.9940    0.0227    3.9348 N   0  0  0  0  0  3           0  0  0
   -0.7593    0.0238    5.2572 N   0  0  0  0  0  3           0  0  0
   -0.6499    0.0000    1.1793 N   0  0  0  0  0  3           0  0  0
   -0.5925    0.0264   -1.2120 N   0  0  0  0  0  3           0  0  0
   -2.7679    0.0276    2.3298 N   0  0  0  0  0  3           0  0  0
   -2.5770    0.0695   -2.4961 N   0  0  2  0  0  3           0  0  0
    2.8891    0.0372    5.8844 N   0  0  0  0  0  3           0  0  0
   -3.0012   -1.4851   -4.8290 N   0  0  2  0  0  3           0  0  0
    0.0000    0.0000    0.0000 C   0  0  0  0  0  4           0  0  0
    2.0917   -0.0000    1.7457 C   0  0  0  0  0  4           0  0  0
   -2.3209    0.0325    3.6051 C   0  0  0  0  0  4           0  0  0
   -2.0016    0.0121    1.1403 C   0  0  0  0  0  4           0  0  0
   -1.9480    0.0445   -1.2661 C   0  0  0  0  0  4           0  0  0
   -1.9852    0.0405    5.7947 C   0  0  0  0  0  4           0  0  0
    2.6224   -0.0098    4.5027 C   0  0  0  0  0  4           0  0  0
    2.2162    1.2055    2.4437 C   0  0  0  0  0  4           0  0  0
    2.2390   -1.2097    2.4320 C   0  0  0  0  0  4           0  0  0
   -2.6800    0.0398   -0.0788 C   0  0  0  0  0  4           0  0  0
   -2.9954    0.0455    4.8038 C   0  0  0  0  0  4           0  0  0
    2.4780    1.2000    3.8158 C   0  0  0  0  0  4           0  0  0
    2.5012   -1.2160    3.8046 C   0  0  0  0  0  4           0  0  0
    3.0718   -1.0041    6.7782 C   0  0  0  0  0  4           0  0  0
   -3.8929   -0.5244   -2.7273 C   0  0  0  0  0  4           0  0  0
   -1.8285    0.3871   -3.7112 C   0  0  0  0  0  4           0  0  0
   -3.7240   -1.7861   -3.5812 C   0  0  0  0  0  4           0  0  0
   -1.6834   -0.8891   -4.5483 C   0  0  0  0  0  4           0  0  0
   -2.8566   -2.6920   -5.6421 C   0  0  0  0  0  4           0  0  0
   -2.1573    0.0391    7.2644 C   0  0  0  0  0  4           0  0  0
    3.3356   -0.5516    8.1651 C   0  0  1  0  0  4           0  0  0
    4.6427   -0.9165    8.8219 C   0  0  0  0  0  4           0  0  0
    4.3704    0.5076    8.4455 C   0  0  0  0  0  4           0  0  0
  1 11  1  0     0  0
  1 12  1  0     0  0
  2 24  2  0     0  0
  3  4  1  0     0  0
  3 13  1  0     0  0
  4 16  2  0     0  0
  5 11  1  0     0  0
  5 14  2  0     0  0
  6 11  2  0     0  0
  6 15  1  0     0  0
  7 13  1  0     0  0
  7 14  1  0     0  0
  8 15  1  0     0  0
  8 25  1  0     0  0
  8 26  1  0     0  0
  9 17  1  0     0  0
  9 24  1  0     0  0
 10 27  1  0     0  0
 10 28  1  0     0  0
 10 29  1  0     0  0
 12 18  2  0     0  0
 12 19  1  0     0  0
 13 21  2  0     0  0
 14 20  1  0     0  0
 15 20  2  0     0  0
 16 21  1  0     0  0
 16 30  1  0     0  0
 17 22  2  0     0  0
 17 23  1  0     0  0
 18 22  1  0     0  0
 19 23  2  0     0  0
 24 31  1  0     0  0
 25 27  1  0     0  0
 26 28  1  0     0  0
 31 32  1  0     0  0
 31 33  1  0     0  0
 32 33  1  0     0  0
M  END
> <standard_type>
pIC50

> <# Confs.>
25

> <canonical_smiles>
CC1=NNC(NC2=NC(SC3=CC=C(NC(C4CC4)=O)C=C3)=NC(N5CCN(C)CC5)=C2)=C1

> <standard_relation>
=

> <Publication_ID>
nan

> <predicted_activity_value>
7.886056647693163

> <actual_activity_value>
7.7447274948966935

> <Compound>
10

> <standard_units>
nM

> hash
7402733853492314349

$$$$
9
XXILIB    08252103493D 0   0.00000     0.00000

 33 37  0     1  0            999 V2000
    1.7803    0.0000   -0.0000 S   0  0  0  0  0  2           0  0  0
    3.0588   -6.7446    1.3517 O   0  0  0  0  0  2           0  0  0
   -0.9940    0.0227    3.9348 N   0  0  0  0  0  3           0  0  0
   -0.7593    0.0238    5.2572 N   0  0  0  0  0  3           0  0  0
   -0.6499   -0.0000    1.1793 N   0  0  0  0  0  3           0  0  0
   -0.5925    0.0264   -1.2120 N   0  0  0  0  0  3           0  0  0
   -2.7679    0.0276    2.3298 N   0  0  0  0  0  3           0  0  0
   -2.5770    0.0695   -2.4961 N   0  0  2  0  0  3           0  0  0
    2.8891   -5.0774    2.9744 N   0  0  0  0  0  3           0  0  0
   -2.8893    1.9674   -4.5802 N   0  0  2  0  0  3           0  0  0
    0.0000    0.0000    0.0000 C   0  0  0  0  0  4           0  0  0
    2.0917   -1.5118    0.8728 C   0  0  0  0  0  4           0  0  0
   -2.3209    0.0325    3.6051 C   0  0  0  0  0  4           0  0  0
   -2.0016    0.0121    1.1403 C   0  0  0  0  0  4           0  0  0
   -1.9480    0.0445   -1.2661 C   0  0  0  0  0  4           0  0  0
   -1.9852    0.0405    5.7947 C   0  0  0  0  0  4           0  0  0
    2.6224   -3.9043    2.2429 C   0  0  0  0  0  4           0  0  0
    2.2162   -1.5135    2.2658 C   0  0  0  0  0  4           0  0  0
    2.2390   -2.7110    0.1684 C   0  0  0  0  0  4           0  0  0
   -2.6800    0.0398   -0.0788 C   0  0  0  0  0  4           0  0  0
   -2.9954    0.0455    4.8038 C   0  0  0  0  0  4           0  0  0
    2.4780   -2.7046    2.9472 C   0  0  0  0  0  4           0  0  0
    2.5012   -3.9029    0.8493 C   0  0  0  0  0  4           0  0  0
    3.0718   -6.3721    2.5195 C   0  0  0  0  0  4           0  0  0
   -3.8786    0.7089   -2.6897 C   0  0  0  0  0  4           0  0  0
   -1.7962   -0.0834   -3.7233 C   0  0  0  0  0  4           0  0  0
   -3.6572    2.0860   -3.3273 C   0  0  0  0  0  4           0  0  0
   -1.5950    1.2992   -4.3548 C   0  0  0  0  0  4           0  0  0
   -2.6904    3.2832   -5.1863 C   0  0  0  0  0  4           0  0  0
   -2.1573    0.0391    7.2644 C   0  0  0  0  0  4           0  0  0
    3.3356   -7.3470    3.6048 C   0  0  1  0  0  4           0  0  0
    2.2904   -7.5634    4.6696 C   0  0  0  0  0  4           0  0  0
    2.5748   -8.6461    3.6742 C   0  0  0  0  0  4           0  0  0
  1 11  1  0     0  0
  1 12  1  0     0  0
  2 24  2  0     0  0
  3  4  1  0     0  0
  3 13  1  0     0  0
  4 16  2  0     0  0
  5 11  1  0     0  0
  5 14  2  0     0  0
  6 11  2  0     0  0
  6 15  1  0     0  0
  7 13  1  0     0  0
  7 14  1  0     0  0
  8 15  1  0     0  0
  8 25  1  0     0  0
  8 26  1  0     0  0
  9 17  1  0     0  0
  9 24  1  0     0  0
 10 27  1  0     0  0
 10 28  1  0     0  0
 10 29  1  0     0  0
 12 18  2  0     0  0
 12 19  1  0     0  0
 13 21  2  0     0  0
 14 20  1  0     0  0
 15 20  2  0     0  0
 16 21  1  0     0  0
 16 30  1  0     0  0
 17 22  2  0     0  0
 17 23  1  0     0  0
 18 22  1  0     0  0
 19 23  2  0     0  0
 24 31  1  0     0  0
 25 27  1  0     0  0
 26 28  1  0     0  0
 31 32  1  0     0  0
 31 33  1  0     0  0
 32 33  1  0     0  0
M  END
> <standard_type>
pIC50

> <# Confs.>
25

> <canonical_smiles>
CC1=NNC(NC2=NC(SC3=CC=C(NC(C4CC4)=O)C=C3)=NC(N5CCN(C)CC5)=C2)=C1

> <standard_relation>
=

> <Publication_ID>
nan

> <predicted_activity_value>
7.886056647693163

> <actual_activity_value>
7.7447274948966935

> <Compound>
10

> <standard_units>
nM

> hash
7402733853492314349

$$$$
9
XXILIB    08252103493D 0   0.00000     0.00000

 33 37  0     1  0            999 V2000
    1.7803    0.0000   -0.0000 S   0  0  0  0  0  2           0  0  0
    3.0588   -6.7446    1.3517 O   0  0  0  0  0  2           0  0  0
   -0.9940    0.0227    3.9348 N   0  0  0  0  0  3           0  0  0
   -0.7593    0.0238    5.2572 N   0  0  0  0  0  3           0  0  0
   -0.6499    0.0000    1.1793 N   0  0  0  0  0  3           0  0  0
   -0.5925    0.0264   -1.2120 N   0  0  0  0  0  3           0  0  0
   -2.7679    0.0276    2.3298 N   0  0  0  0  0  3           0  0  0
   -2.5770    0.0695   -2.4961 N   0  0  2  0  0  3           0  0  0
    2.8891   -5.0774    2.9744 N   0  0  0  0  0  3           0  0  0
   -3.0012   -1.4851   -4.8290 N   0  0  2  0  0  3           0  0  0
    0.0000    0.0000    0.0000 C   0  0  0  0  0  4           0  0  0
    2.0917   -1.5118    0.8728 C   0  0  0  0  0  4           0  0  0
   -2.3209    0.0325    3.6051 C   0  0  0  0  0  4           0  0  0
   -2.0016    0.0121    1.1403 C   0  0  0  0  0  4           0  0  0
   -1.9480    0.0445   -1.2661 C   0  0  0  0  0  4           0  0  0
   -1.9852    0.0405    5.7947 C   0  0  0  0  0  4           0  0  0
    2.6224   -3.9043    2.2429 C   0  0  0  0  0  4           0  0  0
    2.2162   -1.5135    2.2658 C   0  0  0  0  0  4           0  0  0
    2.2390   -2.7110    0.1684 C   0  0  0  0  0  4           0  0  0
   -2.6800    0.0398   -0.0788 C   0  0  0  0  0  4           0  0  0
   -2.9954    0.0455    4.8038 C   0  0  0  0  0  4           0  0  0
    2.4780   -2.7046    2.9472 C   0  0  0  0  0  4           0  0  0
    2.5012   -3.9029    0.8493 C   0  0  0  0  0  4           0  0  0
    3.0718   -6.3721    2.5195 C   0  0  0  0  0  4           0  0  0
   -3.8929   -0.5244   -2.7273 C   0  0  0  0  0  4           0  0  0
   -1.8285    0.3871   -3.7112 C   0  0  0  0  0  4           0  0  0
   -3.7240   -1.7861   -3.5812 C   0  0  0  0  0  4           0  0  0
   -1.6834   -0.8891   -4.5483 C   0  0  0  0  0  4           0  0  0
   -2.8566   -2.6920   -5.6421 C   0  0  0  0  0  4           0  0  0
   -2.1573    0.0391    7.2644 C   0  0  0  0  0  4           0  0  0
    3.3356   -7.3470    3.6048 C   0  0  1  0  0  4           0  0  0
    2.2904   -7.5634    4.6696 C   0  0  0  0  0  4           0  0  0
    2.5748   -8.6461    3.6742 C   0  0  0  0  0  4           0  0  0
  1 11  1  0     0  0
  1 12  1  0     0  0
  2 24  2  0     0  0
  3  4  1  0     0  0
  3 13  1  0     0  0
  4 16  2  0     0  0
  5 11  1  0     0  0
  5 14  2  0     0  0
  6 11  2  0     0  0
  6 15  1  0     0  0
  7 13  1  0     0  0
  7 14  1  0     0  0
  8 15  1  0     0  0
  8 25  1  0     0  0
  8 26  1  0     0  0
  9 17  1  0     0  0
  9 24  1  0     0  0
 10 27  1  0     0  0
 10 28  1  0     0  0
 10 29  1  0     0  0
 12 18  2  0     0  0
 12 19  1  0     0  0
 13 21  2  0     0  0
 14 20  1  0     0  0
 15 20  2  0     0  0
 16 21  1  0     0  0
 16 30  1  0     0  0
 17 22  2  0     0  0
 17 23  1  0     0  0
 18 22  1  0     0  0
 19 23  2  0     0  0
 24 31  1  0     0  0
 25 27  1  0     0  0
 26 28  1  0     0  0
 31 32  1  0     0  0
 31 33  1  0     0  0
 32 33  1  0     0  0
M  END
> <standard_type>
pIC50

> <# Confs.>
25

> <canonical_smiles>
CC1=NNC(NC2=NC(SC3=CC=C(NC(C4CC4)=O)C=C3)=NC(N5CCN(C)CC5)=C2)=C1

> <standard_relation>
=

> <Publication_ID>
nan

> <predicted_activity_value>
7.886056647693163

> <actual_activity_value>
7.7447274948966935

> <Compound>
10

> <standard_units>
nM

> hash
7402733853492314349

$$$$
9
XXILIB    08252103493D 0   0.00000     0.00000

 33 37  0     1  0            999 V2000
    1.7803    0.0000   -0.0000 S   0  0  0  0  0  2           0  0  0
    3.0588   -6.7446    1.3517 O   0  0  0  0  0  2           0  0  0
   -0.9940    0.0227    3.9348 N   0  0  0  0  0  3           0  0  0
   -0.7593    0.0238    5.2572 N   0  0  0  0  0  3           0  0  0
   -0.6499   -0.0000    1.1793 N   0  0  0  0  0  3           0  0  0
   -0.5925    0.0264   -1.2120 N   0  0  0  0  0  3           0  0  0
   -2.7679    0.0276    2.3298 N   0  0  0  0  0  3           0  0  0
   -2.5770    0.0695   -2.4961 N   0  0  2  0  0  3           0  0  0
    2.8891   -5.0774    2.9744 N   0  0  0  0  0  3           0  0  0
   -2.8893    1.9674   -4.5802 N   0  0  2  0  0  3           0  0  0
    0.0000    0.0000    0.0000 C   0  0  0  0  0  4           0  0  0
    2.0917   -1.5118    0.8728 C   0  0  0  0  0  4           0  0  0
   -2.3209    0.0325    3.6051 C   0  0  0  0  0  4           0  0  0
   -2.0016    0.0121    1.1403 C   0  0  0  0  0  4           0  0  0
   -1.9480    0.0445   -1.2661 C   0  0  0  0  0  4           0  0  0
   -1.9852    0.0405    5.7947 C   0  0  0  0  0  4           0  0  0
    2.6224   -3.9043    2.2429 C   0  0  0  0  0  4           0  0  0
    2.2162   -1.5135    2.2658 C   0  0  0  0  0  4           0  0  0
    2.2390   -2.7110    0.1684 C   0  0  0  0  0  4           0  0  0
   -2.6800    0.0398   -0.0788 C   0  0  0  0  0  4           0  0  0
   -2.9954    0.0455    4.8038 C   0  0  0  0  0  4           0  0  0
    2.4780   -2.7046    2.9472 C   0  0  0  0  0  4           0  0  0
    2.5012   -3.9029    0.8493 C   0  0  0  0  0  4           0  0  0
    3.0718   -6.3721    2.5195 C   0  0  0  0  0  4           0  0  0
   -3.8786    0.7089   -2.6897 C   0  0  0  0  0  4           0  0  0
   -1.7962   -0.0834   -3.7233 C   0  0  0  0  0  4           0  0  0
   -3.6572    2.0860   -3.3273 C   0  0  0  0  0  4           0  0  0
   -1.5950    1.2992   -4.3548 C   0  0  0  0  0  4           0  0  0
   -2.6904    3.2832   -5.1863 C   0  0  0  0  0  4           0  0  0
   -2.1573    0.0391    7.2644 C   0  0  0  0  0  4           0  0  0
    3.3356   -7.3470    3.6048 C   0  0  1  0  0  4           0  0  0
    4.6427   -8.0983    3.6173 C   0  0  0  0  0  4           0  0  0
    4.3704   -7.0602    4.6623 C   0  0  0  0  0  4           0  0  0
  1 11  1  0     0  0
  1 12  1  0     0  0
  2 24  2  0     0  0
  3  4  1  0     0  0
  3 13  1  0     0  0
  4 16  2  0     0  0
  5 11  1  0     0  0
  5 14  2  0     0  0
  6 11  2  0     0  0
  6 15  1  0     0  0
  7 13  1  0     0  0
  7 14  1  0     0  0
  8 15  1  0     0  0
  8 25  1  0     0  0
  8 26  1  0     0  0
  9 17  1  0     0  0
  9 24  1  0     0  0
 10 27  1  0     0  0
 10 28  1  0     0  0
 10 29  1  0     0  0
 12 18  2  0     0  0
 12 19  1  0     0  0
 13 21  2  0     0  0
 14 20  1  0     0  0
 15 20  2  0     0  0
 16 21  1  0     0  0
 16 30  1  0     0  0
 17 22  2  0     0  0
 17 23  1  0     0  0
 18 22  1  0     0  0
 19 23  2  0     0  0
 24 31  1  0     0  0
 25 27  1  0     0  0
 26 28  1  0     0  0
 31 32  1  0     0  0
 31 33  1  0     0  0
 32 33  1  0     0  0
M  END
> <standard_type>
pIC50

> <# Confs.>
25

> <canonical_smiles>
CC1=NNC(NC2=NC(SC3=CC=C(NC(C4CC4)=O)C=C3)=NC(N5CCN(C)CC5)=C2)=C1

> <standard_relation>
=

> <Publication_ID>
nan

> <predicted_activity_value>
7.886056647693163

> <actual_activity_value>
7.7447274948966935

> <Compound>
10

> <standard_units>
nM

> hash
7402733853492314349

$$$$
9
XXILIB    08252103493D 0   0.00000     0.00000

 33 37  0     1  0            999 V2000
    1.7803    0.0000   -0.0000 S   0  0  0  0  0  2           0  0  0
    3.0588   -6.7446    1.3517 O   0  0  0  0  0  2           0  0  0
   -0.9940    0.0227    3.9348 N   0  0  0  0  0  3           0  0  0
   -0.7593    0.0238    5.2572 N   0  0  0  0  0  3           0  0  0
   -0.6499    0.0000    1.1793 N   0  0  0  0  0  3           0  0  0
   -0.5925    0.0264   -1.2120 N   0  0  0  0  0  3           0  0  0
   -2.7679    0.0276    2.3298 N   0  0  0  0  0  3           0  0  0
   -2.5770    0.0695   -2.4961 N   0  0  2  0  0  3           0  0  0
    2.8891   -5.0774    2.9744 N   0  0  0  0  0  3           0  0  0
   -3.0012   -1.4851   -4.8290 N   0  0  2  0  0  3           0  0  0
    0.0000    0.0000    0.0000 C   0  0  0  0  0  4           0  0  0
    2.0917   -1.5118    0.8728 C   0  0  0  0  0  4           0  0  0
   -2.3209    0.0325    3.6051 C   0  0  0  0  0  4           0  0  0
   -2.0016    0.0121    1.1403 C   0  0  0  0  0  4           0  0  0
   -1.9480    0.0445   -1.2661 C   0  0  0  0  0  4           0  0  0
   -1.9852    0.0405    5.7947 C   0  0  0  0  0  4           0  0  0
    2.6224   -3.9043    2.2429 C   0  0  0  0  0  4           0  0  0
    2.2162   -1.5135    2.2658 C   0  0  0  0  0  4           0  0  0
    2.2390   -2.7110    0.1684 C   0  0  0  0  0  4           0  0  0
   -2.6800    0.0398   -0.0788 C   0  0  0  0  0  4           0  0  0
   -2.9954    0.0455    4.8038 C   0  0  0  0  0  4           0  0  0
    2.4780   -2.7046    2.9472 C   0  0  0  0  0  4           0  0  0
    2.5012   -3.9029    0.8493 C   0  0  0  0  0  4           0  0  0
    3.0718   -6.3721    2.5195 C   0  0  0  0  0  4           0  0  0
   -3.8929   -0.5244   -2.7273 C   0  0  0  0  0  4           0  0  0
   -1.8285    0.3871   -3.7112 C   0  0  0  0  0  4           0  0  0
   -3.7240   -1.7861   -3.5812 C   0  0  0  0  0  4           0  0  0
   -1.6834   -0.8891   -4.5483 C   0  0  0  0  0  4           0  0  0
   -2.8566   -2.6920   -5.6421 C   0  0  0  0  0  4           0  0  0
   -2.1573    0.0391    7.2644 C   0  0  0  0  0  4           0  0  0
    3.3356   -7.3470    3.6048 C   0  0  1  0  0  4           0  0  0
    4.6427   -8.0983    3.6173 C   0  0  0  0  0  4           0  0  0
    4.3704   -7.0602    4.6623 C   0  0  0  0  0  4           0  0  0
  1 11  1  0     0  0
  1 12  1  0     0  0
  2 24  2  0     0  0
  3  4  1  0     0  0
  3 13  1  0     0  0
  4 16  2  0     0  0
  5 11  1  0     0  0
  5 14  2  0     0  0
  6 11  2  0     0  0
  6 15  1  0     0  0
  7 13  1  0     0  0
  7 14  1  0     0  0
  8 15  1  0     0  0
  8 25  1  0     0  0
  8 26  1  0     0  0
  9 17  1  0     0  0
  9 24  1  0     0  0
 10 27  1  0     0  0
 10 28  1  0     0  0
 10 29  1  0     0  0
 12 18  2  0     0  0
 12 19  1  0     0  0
 13 21  2  0     0  0
 14 20  1  0     0  0
 15 20  2  0     0  0
 16 21  1  0     0  0
 16 30  1  0     0  0
 17 22  2  0     0  0
 17 23  1  0     0  0
 18 22  1  0     0  0
 19 23  2  0     0  0
 24 31  1  0     0  0
 25 27  1  0     0  0
 26 28  1  0     0  0
 31 32  1  0     0  0
 31 33  1  0     0  0
 32 33  1  0     0  0
M  END
> <standard_type>
pIC50

> <# Confs.>
25

> <canonical_smiles>
CC1=NNC(NC2=NC(SC3=CC=C(NC(C4CC4)=O)C=C3)=NC(N5CCN(C)CC5)=C2)=C1

> <standard_relation>
=

> <Publication_ID>
nan

> <predicted_activity_value>
7.886056647693163

> <actual_activity_value>
7.7447274948966935

> <Compound>
10

> <standard_units>
nM

> hash
7402733853492314349

$$$$
9
XXILIB    08252103493D 0   0.00000     0.00000

 33 37  0     1  0            999 V2000
    1.7803   -0.0000   -0.0000 S   0  0  0  0  0  2           0  0  0
    4.1274    1.5614    6.4035 O   0  0  0  0  0  2           0  0  0
   -0.9940    0.0227    3.9348 N   0  0  0  0  0  3           0  0  0
   -0.7593    0.0238    5.2572 N   0  0  0  0  0  3           0  0  0
   -0.6499   -0.0000    1.1793 N   0  0  0  0  0  3           0  0  0
   -0.5925    0.0264   -1.2120 N   0  0  0  0  0  3           0  0  0
   -2.7679    0.0276    2.3298 N   0  0  0  0  0  3           0  0  0
   -2.5770    0.0695   -2.4961 N   0  0  2  0  0  3           0  0  0
    2.8630    2.9977    5.0694 N   0  0  0  0  0  3           0  0  0
   -3.7451    0.4274   -5.0722 N   0  0  2  0  0  3           0  0  0
    0.0000    0.0000    0.0000 C   0  0  0  0  0  4           0  0  0
    2.0917    0.8728    1.5118 C   0  0  0  0  0  4           0  0  0
   -2.3209    0.0325    3.6051 C   0  0  0  0  0  4           0  0  0
   -2.0016    0.0121    1.1403 C   0  0  0  0  0  4           0  0  0
   -1.9480    0.0445   -1.2661 C   0  0  0  0  0  4           0  0  0
   -1.9852    0.0405    5.7947 C   0  0  0  0  0  4           0  0  0
    2.6221    2.2606    3.8941 C   0  0  0  0  0  4           0  0  0
    1.6228    2.1789    1.6859 C   0  0  0  0  0  4           0  0  0
    2.8312    0.2665    2.5323 C   0  0  0  0  0  4           0  0  0
   -2.6800    0.0398   -0.0788 C   0  0  0  0  0  4           0  0  0
   -2.9954    0.0455    4.8038 C   0  0  0  0  0  4           0  0  0
    1.8851    2.8681    2.8723 C   0  0  0  0  0  4           0  0  0
    3.0943    0.9555    3.7194 C   0  0  0  0  0  4           0  0  0
    3.5553    2.6281    6.2098 C   0  0  0  0  0  4           0  0  0
   -1.7264    0.0751   -3.6883 C   0  0  0  0  0  4           0  0  0
   -3.9018    0.6835   -2.6171 C   0  0  0  0  0  4           0  0  0
   -2.5142   -0.3584   -4.9256 C   0  0  0  0  0  4           0  0  0
   -4.6026    0.2258   -3.8982 C   0  0  0  0  0  4           0  0  0
   -4.4517    0.0463   -6.2950 C   0  0  0  0  0  4           0  0  0
   -2.1573    0.0391    7.2644 C   0  0  0  0  0  4           0  0  0
    3.5943    3.6880    7.2457 C   0  0  1  0  0  4           0  0  0
    2.3008    4.1801    7.8438 C   0  0  0  0  0  4           0  0  0
    3.2493    3.3762    8.6792 C   0  0  0  0  0  4           0  0  0
  1 11  1  0     0  0
  1 12  1  0     0  0
  2 24  2  0     0  0
  3  4  1  0     0  0
  3 13  1  0     0  0
  4 16  2  0     0  0
  5 11  1  0     0  0
  5 14  2  0     0  0
  6 11  2  0     0  0
  6 15  1  0     0  0
  7 13  1  0     0  0
  7 14  1  0     0  0
  8 15  1  0     0  0
  8 25  1  0     0  0
  8 26  1  0     0  0
  9 17  1  0     0  0
  9 24  1  0     0  0
 10 27  1  0     0  0
 10 28  1  0     0  0
 10 29  1  0     0  0
 12 18  2  0     0  0
 12 19  1  0     0  0
 13 21  2  0     0  0
 14 20  1  0     0  0
 15 20  2  0     0  0
 16 21  1  0     0  0
 16 30  1  0     0  0
 17 22  2  0     0  0
 17 23  1  0     0  0
 18 22  1  0     0  0
 19 23  2  0     0  0
 24 31  1  0     0  0
 25 27  1  0     0  0
 26 28  1  0     0  0
 31 32  1  0     0  0
 31 33  1  0     0  0
 32 33  1  0     0  0
M  END
> <standard_type>
pIC50

> <# Confs.>
25

> <canonical_smiles>
CC1=NNC(NC2=NC(SC3=CC=C(NC(C4CC4)=O)C=C3)=NC(N5CCN(C)CC5)=C2)=C1

> <standard_relation>
=

> <Publication_ID>
nan

> <predicted_activity_value>
7.886056647693163

> <actual_activity_value>
7.7447274948966935

> <Compound>
10

> <standard_units>
nM

> hash
7402733853492314349

$$$$
9
XXILIB    08252103493D 0   0.00000     0.00000

 33 37  0     1  0            999 V2000
    1.7803   -0.0000   -0.0000 S   0  0  0  0  0  2           0  0  0
    1.9600    5.0572   -4.8316 O   0  0  0  0  0  2           0  0  0
   -0.9940    0.0227    3.9348 N   0  0  0  0  0  3           0  0  0
   -0.7593    0.0238    5.2572 N   0  0  0  0  0  3           0  0  0
   -0.6499   -0.0000    1.1793 N   0  0  0  0  0  3           0  0  0
   -0.5925    0.0264   -1.2120 N   0  0  0  0  0  3           0  0  0
   -2.7679    0.0276    2.3298 N   0  0  0  0  0  3           0  0  0
   -2.5770    0.0695   -2.4961 N   0  0  2  0  0  3           0  0  0
    2.8997    2.9386   -5.0960 N   0  0  0  0  0  3           0  0  0
   -2.8893    1.9674   -4.5802 N   0  0  2  0  0  3           0  0  0
    0.0000    0.0000    0.0000 C   0  0  0  0  0  4           0  0  0
    2.0917    0.8728   -1.5118 C   0  0  0  0  0  4           0  0  0
   -2.3209    0.0325    3.6051 C   0  0  0  0  0  4           0  0  0
   -2.0016    0.0121    1.1403 C   0  0  0  0  0  4           0  0  0
   -1.9480    0.0445   -1.2661 C   0  0  0  0  0  4           0  0  0
   -1.9852    0.0405    5.7947 C   0  0  0  0  0  4           0  0  0
    2.6125    2.2762   -3.8871 C   0  0  0  0  0  4           0  0  0
    2.8095    0.2648   -2.5466 C   0  0  0  0  0  4           0  0  0
    1.6403    2.1873   -1.6687 C   0  0  0  0  0  4           0  0  0
   -2.6800    0.0398   -0.0788 C   0  0  0  0  0  4           0  0  0
   -2.9954    0.0455    4.8038 C   0  0  0  0  0  4           0  0  0
    3.0665    0.9627   -3.7291 C   0  0  0  0  0  4           0  0  0
    1.8972    2.8862   -2.8512 C   0  0  0  0  0  4           0  0  0
    2.5668    4.2223   -5.4930 C   0  0  0  0  0  4           0  0  0
   -3.8786    0.7089   -2.6897 C   0  0  0  0  0  4           0  0  0
   -1.7962   -0.0834   -3.7233 C   0  0  0  0  0  4           0  0  0
   -3.6572    2.0860   -3.3273 C   0  0  0  0  0  4           0  0  0
   -1.5950    1.2992   -4.3548 C   0  0  0  0  0  4           0  0  0
   -2.6904    3.2832   -5.1863 C   0  0  0  0  0  4           0  0  0
   -2.1573    0.0391    7.2644 C   0  0  0  0  0  4           0  0  0
    3.0512    4.5638   -6.8519 C   0  0  1  0  0  4           0  0  0
    2.5590    3.7637   -8.0311 C   0  0  0  0  0  4           0  0  0
    2.1260    5.1880   -7.8646 C   0  0  0  0  0  4           0  0  0
  1 11  1  0     0  0
  1 12  1  0     0  0
  2 24  2  0     0  0
  3  4  1  0     0  0
  3 13  1  0     0  0
  4 16  2  0     0  0
  5 11  1  0     0  0
  5 14  2  0     0  0
  6 11  2  0     0  0
  6 15  1  0     0  0
  7 13  1  0     0  0
  7 14  1  0     0  0
  8 15  1  0     0  0
  8 25  1  0     0  0
  8 26  1  0     0  0
  9 17  1  0     0  0
  9 24  1  0     0  0
 10 27  1  0     0  0
 10 28  1  0     0  0
 10 29  1  0     0  0
 12 18  2  0     0  0
 12 19  1  0     0  0
 13 21  2  0     0  0
 14 20  1  0     0  0
 15 20  2  0     0  0
 16 21  1  0     0  0
 16 30  1  0     0  0
 17 22  2  0     0  0
 17 23  1  0     0  0
 18 22  1  0     0  0
 19 23  2  0     0  0
 24 31  1  0     0  0
 25 27  1  0     0  0
 26 28  1  0     0  0
 31 32  1  0     0  0
 31 33  1  0     0  0
 32 33  1  0     0  0
M  END
> <standard_type>
pIC50

> <# Confs.>
25

> <canonical_smiles>
CC1=NNC(NC2=NC(SC3=CC=C(NC(C4CC4)=O)C=C3)=NC(N5CCN(C)CC5)=C2)=C1

> <standard_relation>
=

> <Publication_ID>
nan

> <predicted_activity_value>
7.886056647693163

> <actual_activity_value>
7.7447274948966935

> <Compound>
10

> <standard_units>
nM

> hash
7402733853492314349

$$$$
9
XXILIB    08252103493D 0   0.00000     0.00000

 33 37  0     1  0            999 V2000
    1.7803   -0.0000   -0.0000 S   0  0  0  0  0  2           0  0  0
    4.1274    1.5614    6.4035 O   0  0  0  0  0  2           0  0  0
   -0.9940    0.0227    3.9348 N   0  0  0  0  0  3           0  0  0
   -0.7593    0.0238    5.2572 N   0  0  0  0  0  3           0  0  0
   -0.6499   -0.0000    1.1793 N   0  0  0  0  0  3           0  0  0
   -0.5925    0.0264   -1.2120 N   0  0  0  0  0  3           0  0  0
   -2.7679    0.0276    2.3298 N   0  0  0  0  0  3           0  0  0
   -2.5770    0.0695   -2.4961 N   0  0  2  0  0  3           0  0  0
    2.8630    2.9977    5.0694 N   0  0  0  0  0  3           0  0  0
   -3.7451    0.4274   -5.0722 N   0  0  2  0  0  3           0  0  0
    0.0000    0.0000    0.0000 C   0  0  0  0  0  4           0  0  0
    2.0917    0.8728    1.5118 C   0  0  0  0  0  4           0  0  0
   -2.3209    0.0325    3.6051 C   0  0  0  0  0  4           0  0  0
   -2.0016    0.0121    1.1403 C   0  0  0  0  0  4           0  0  0
   -1.9480    0.0445   -1.2661 C   0  0  0  0  0  4           0  0  0
   -1.9852    0.0405    5.7947 C   0  0  0  0  0  4           0  0  0
    2.6221    2.2606    3.8941 C   0  0  0  0  0  4           0  0  0
    1.6228    2.1789    1.6859 C   0  0  0  0  0  4           0  0  0
    2.8312    0.2665    2.5323 C   0  0  0  0  0  4           0  0  0
   -2.6800    0.0398   -0.0788 C   0  0  0  0  0  4           0  0  0
   -2.9954    0.0455    4.8038 C   0  0  0  0  0  4           0  0  0
    1.8851    2.8681    2.8723 C   0  0  0  0  0  4           0  0  0
    3.0943    0.9555    3.7194 C   0  0  0  0  0  4           0  0  0
    3.5553    2.6281    6.2098 C   0  0  0  0  0  4           0  0  0
   -1.7264    0.0751   -3.6883 C   0  0  0  0  0  4           0  0  0
   -3.9018    0.6835   -2.6171 C   0  0  0  0  0  4           0  0  0
   -2.5142   -0.3584   -4.9256 C   0  0  0  0  0  4           0  0  0
   -4.6026    0.2258   -3.8982 C   0  0  0  0  0  4           0  0  0
   -4.4517    0.0463   -6.2950 C   0  0  0  0  0  4           0  0  0
   -2.1573    0.0391    7.2644 C   0  0  0  0  0  4           0  0  0
    3.5943    3.6880    7.2457 C   0  0  1  0  0  4           0  0  0
    4.9265    4.2478    7.6758 C   0  0  0  0  0  4           0  0  0
    3.9798    5.1002    6.8878 C   0  0  0  0  0  4           0  0  0
  1 11  1  0     0  0
  1 12  1  0     0  0
  2 24  2  0     0  0
  3  4  1  0     0  0
  3 13  1  0     0  0
  4 16  2  0     0  0
  5 11  1  0     0  0
  5 14  2  0     0  0
  6 11  2  0     0  0
  6 15  1  0     0  0
  7 13  1  0     0  0
  7 14  1  0     0  0
  8 15  1  0     0  0
  8 25  1  0     0  0
  8 26  1  0     0  0
  9 17  1  0     0  0
  9 24  1  0     0  0
 10 27  1  0     0  0
 10 28  1  0     0  0
 10 29  1  0     0  0
 12 18  2  0     0  0
 12 19  1  0     0  0
 13 21  2  0     0  0
 14 20  1  0     0  0
 15 20  2  0     0  0
 16 21  1  0     0  0
 16 30  1  0     0  0
 17 22  2  0     0  0
 17 23  1  0     0  0
 18 22  1  0     0  0
 19 23  2  0     0  0
 24 31  1  0     0  0
 25 27  1  0     0  0
 26 28  1  0     0  0
 31 32  1  0     0  0
 31 33  1  0     0  0
 32 33  1  0     0  0
M  END
> <standard_type>
pIC50

> <# Confs.>
25

> <canonical_smiles>
CC1=NNC(NC2=NC(SC3=CC=C(NC(C4CC4)=O)C=C3)=NC(N5CCN(C)CC5)=C2)=C1

> <standard_relation>
=

> <Publication_ID>
nan

> <predicted_activity_value>
7.886056647693163

> <actual_activity_value>
7.7447274948966935

> <Compound>
10

> <standard_units>
nM

> hash
7402733853492314349

$$$$
9
XXILIB    08252103493D 0   0.00000     0.00000

 33 37  0     1  0            999 V2000
    1.7803   -0.0000   -0.0000 S   0  0  0  0  0  2           0  0  0
    1.9600    5.0572   -4.8316 O   0  0  0  0  0  2           0  0  0
   -0.9940    0.0227    3.9348 N   0  0  0  0  0  3           0  0  0
   -0.7593    0.0238    5.2572 N   0  0  0  0  0  3           0  0  0
   -0.6499   -0.0000    1.1793 N   0  0  0  0  0  3           0  0  0
   -0.5925    0.0264   -1.2120 N   0  0  0  0  0  3           0  0  0
   -2.7679    0.0276    2.3298 N   0  0  0  0  0  3           0  0  0
   -2.5770    0.0695   -2.4961 N   0  0  2  0  0  3           0  0  0
    2.8997    2.9386   -5.0960 N   0  0  0  0  0  3           0  0  0
   -2.8893    1.9674   -4.5802 N   0  0  2  0  0  3           0  0  0
    0.0000    0.0000    0.0000 C   0  0  0  0  0  4           0  0  0
    2.0917    0.8728   -1.5118 C   0  0  0  0  0  4           0  0  0
   -2.3209    0.0325    3.6051 C   0  0  0  0  0  4           0  0  0
   -2.0016    0.0121    1.1403 C   0  0  0  0  0  4           0  0  0
   -1.9480    0.0445   -1.2661 C   0  0  0  0  0  4           0  0  0
   -1.9852    0.0405    5.7947 C   0  0  0  0  0  4           0  0  0
    2.6125    2.2762   -3.8871 C   0  0  0  0  0  4           0  0  0
    2.8095    0.2648   -2.5466 C   0  0  0  0  0  4           0  0  0
    1.6403    2.1873   -1.6687 C   0  0  0  0  0  4           0  0  0
   -2.6800    0.0398   -0.0788 C   0  0  0  0  0  4           0  0  0
   -2.9954    0.0455    4.8038 C   0  0  0  0  0  4           0  0  0
    3.0665    0.9627   -3.7291 C   0  0  0  0  0  4           0  0  0
    1.8972    2.8862   -2.8512 C   0  0  0  0  0  4           0  0  0
    2.5668    4.2223   -5.4930 C   0  0  0  0  0  4           0  0  0
   -3.8786    0.7089   -2.6897 C   0  0  0  0  0  4           0  0  0
   -1.7962   -0.0834   -3.7233 C   0  0  0  0  0  4           0  0  0
   -3.6572    2.0860   -3.3273 C   0  0  0  0  0  4           0  0  0
   -1.5950    1.2992   -4.3548 C   0  0  0  0  0  4           0  0  0
   -2.6904    3.2832   -5.1863 C   0  0  0  0  0  4           0  0  0
   -2.1573    0.0391    7.2644 C   0  0  0  0  0  4           0  0  0
    3.0512    4.5638   -6.8519 C   0  0  1  0  0  4           0  0  0
    4.0242    5.7029   -7.0215 C   0  0  0  0  0  4           0  0  0
    4.4795    4.2943   -7.2502 C   0  0  0  0  0  4           0  0  0
  1 11  1  0     0  0
  1 12  1  0     0  0
  2 24  2  0     0  0
  3  4  1  0     0  0
  3 13  1  0     0  0
  4 16  2  0     0  0
  5 11  1  0     0  0
  5 14  2  0     0  0
  6 11  2  0     0  0
  6 15  1  0     0  0
  7 13  1  0     0  0
  7 14  1  0     0  0
  8 15  1  0     0  0
  8 25  1  0     0  0
  8 26  1  0     0  0
  9 17  1  0     0  0
  9 24  1  0     0  0
 10 27  1  0     0  0
 10 28  1  0     0  0
 10 29  1  0     0  0
 12 18  2  0     0  0
 12 19  1  0     0  0
 13 21  2  0     0  0
 14 20  1  0     0  0
 15 20  2  0     0  0
 16 21  1  0     0  0
 16 30  1  0     0  0
 17 22  2  0     0  0
 17 23  1  0     0  0
 18 22  1  0     0  0
 19 23  2  0     0  0
 24 31  1  0     0  0
 25 27  1  0     0  0
 26 28  1  0     0  0
 31 32  1  0     0  0
 31 33  1  0     0  0
 32 33  1  0     0  0
M  END
> <standard_type>
pIC50

> <# Confs.>
25

> <canonical_smiles>
CC1=NNC(NC2=NC(SC3=CC=C(NC(C4CC4)=O)C=C3)=NC(N5CCN(C)CC5)=C2)=C1

> <standard_relation>
=

> <Publication_ID>
nan

> <predicted_activity_value>
7.886056647693163

> <actual_activity_value>
7.7447274948966935

> <Compound>
10

> <standard_units>
nM

> hash
7402733853492314349

$$$$
9
XXILIB    08252103493D 0   0.00000     0.00000

 33 37  0     1  0            999 V2000
    1.7803    0.0000   -0.0000 S   0  0  0  0  0  2           0  0  0
    3.0588   -6.5169   -2.2017 O   0  0  0  0  0  2           0  0  0
   -0.9940    0.0227    3.9348 N   0  0  0  0  0  3           0  0  0
   -0.7593    0.0238    5.2572 N   0  0  0  0  0  3           0  0  0
   -0.6499   -0.0000    1.1793 N   0  0  0  0  0  3           0  0  0
   -0.5925    0.0264   -1.2120 N   0  0  0  0  0  3           0  0  0
   -2.7679    0.0276    2.3298 N   0  0  0  0  0  3           0  0  0
   -2.5770    0.0695   -2.4961 N   0  0  2  0  0  3           0  0  0
    2.8891   -5.8844    0.0372 N   0  0  0  0  0  3           0  0  0
   -3.7451    0.4274   -5.0722 N   0  0  2  0  0  3           0  0  0
    0.0000    0.0000    0.0000 C   0  0  0  0  0  4           0  0  0
    2.0917   -1.7457    0.0000 C   0  0  0  0  0  4           0  0  0
   -2.3209    0.0325    3.6051 C   0  0  0  0  0  4           0  0  0
   -2.0016    0.0121    1.1403 C   0  0  0  0  0  4           0  0  0
   -1.9480    0.0445   -1.2661 C   0  0  0  0  0  4           0  0  0
   -1.9852    0.0405    5.7947 C   0  0  0  0  0  4           0  0  0
    2.6224   -4.5027   -0.0098 C   0  0  0  0  0  4           0  0  0
    2.2162   -2.4437    1.2055 C   0  0  0  0  0  4           0  0  0
    2.2390   -2.4320   -1.2097 C   0  0  0  0  0  4           0  0  0
   -2.6800    0.0398   -0.0788 C   0  0  0  0  0  4           0  0  0
   -2.9954    0.0455    4.8038 C   0  0  0  0  0  4           0  0  0
    2.4780   -3.8158    1.2000 C   0  0  0  0  0  4           0  0  0
    2.5012   -3.8046   -1.2160 C   0  0  0  0  0  4           0  0  0
    3.0718   -6.7782   -1.0041 C   0  0  0  0  0  4           0  0  0
   -1.7264    0.0751   -3.6883 C   0  0  0  0  0  4           0  0  0
   -3.9018    0.6835   -2.6171 C   0  0  0  0  0  4           0  0  0
   -2.5142   -0.3584   -4.9256 C   0  0  0  0  0  4           0  0  0
   -4.6026    0.2258   -3.8982 C   0  0  0  0  0  4           0  0  0
   -4.4517    0.0463   -6.2950 C   0  0  0  0  0  4           0  0  0
   -2.1573    0.0391    7.2644 C   0  0  0  0  0  4           0  0  0
    3.3356   -8.1651   -0.5516 C   0  0  1  0  0  4           0  0  0
    2.2904   -8.8849    0.2623 C   0  0  0  0  0  4           0  0  0
    2.5748   -9.3248   -1.1411 C   0  0  0  0  0  4           0  0  0
  1 11  1  0     0  0
  1 12  1  0     0  0
  2 24  2  0     0  0
  3  4  1  0     0  0
  3 13  1  0     0  0
  4 16  2  0     0  0
  5 11  1  0     0  0
  5 14  2  0     0  0
  6 11  2  0     0  0
  6 15  1  0     0  0
  7 13  1  0     0  0
  7 14  1  0     0  0
  8 15  1  0     0  0
  8 25  1  0     0  0
  8 26  1  0     0  0
  9 17  1  0     0  0
  9 24  1  0     0  0
 10 27  1  0     0  0
 10 28  1  0     0  0
 10 29  1  0     0  0
 12 18  2  0     0  0
 12 19  1  0     0  0
 13 21  2  0     0  0
 14 20  1  0     0  0
 15 20  2  0     0  0
 16 21  1  0     0  0
 16 30  1  0     0  0
 17 22  2  0     0  0
 17 23  1  0     0  0
 18 22  1  0     0  0
 19 23  2  0     0  0
 24 31  1  0     0  0
 25 27  1  0     0  0
 26 28  1  0     0  0
 31 32  1  0     0  0
 31 33  1  0     0  0
 32 33  1  0     0  0
M  END
> <standard_type>
pIC50

> <# Confs.>
25

> <canonical_smiles>
CC1=NNC(NC2=NC(SC3=CC=C(NC(C4CC4)=O)C=C3)=NC(N5CCN(C)CC5)=C2)=C1

> <standard_relation>
=

> <Publication_ID>
nan

> <predicted_activity_value>
7.886056647693163

> <actual_activity_value>
7.7447274948966935

> <Compound>
10

> <standard_units>
nM

> hash
7402733853492314349

$$$$
9
XXILIB    08252103493D 0   0.00000     0.00000

 33 37  0     1  0            999 V2000
    1.7803    0.0000    0.0000 S   0  0  0  0  0  2           0  0  0
    3.0588    2.2017   -6.5169 O   0  0  0  0  0  2           0  0  0
   -0.9940    0.0227    3.9348 N   0  0  0  0  0  3           0  0  0
   -0.7593    0.0238    5.2572 N   0  0  0  0  0  3           0  0  0
   -0.6499   -0.0000    1.1793 N   0  0  0  0  0  3           0  0  0
   -0.5925    0.0264   -1.2120 N   0  0  0  0  0  3           0  0  0
   -2.7679    0.0276    2.3298 N   0  0  0  0  0  3           0  0  0
   -2.5770    0.0695   -2.4961 N   0  0  2  0  0  3           0  0  0
    2.8891   -0.0372   -5.8844 N   0  0  0  0  0  3           0  0  0
   -2.8893    1.9674   -4.5802 N   0  0  2  0  0  3           0  0  0
    0.0000    0.0000    0.0000 C   0  0  0  0  0  4           0  0  0
    2.0917    0.0000   -1.7457 C   0  0  0  0  0  4           0  0  0
   -2.3209    0.0325    3.6051 C   0  0  0  0  0  4           0  0  0
   -2.0016    0.0121    1.1403 C   0  0  0  0  0  4           0  0  0
   -1.9480    0.0445   -1.2661 C   0  0  0  0  0  4           0  0  0
   -1.9852    0.0405    5.7947 C   0  0  0  0  0  4           0  0  0
    2.6224    0.0098   -4.5027 C   0  0  0  0  0  4           0  0  0
    2.2162   -1.2055   -2.4437 C   0  0  0  0  0  4           0  0  0
    2.2390    1.2097   -2.4320 C   0  0  0  0  0  4           0  0  0
   -2.6800    0.0398   -0.0788 C   0  0  0  0  0  4           0  0  0
   -2.9954    0.0455    4.8038 C   0  0  0  0  0  4           0  0  0
    2.4780   -1.2000   -3.8158 C   0  0  0  0  0  4           0  0  0
    2.5012    1.2160   -3.8046 C   0  0  0  0  0  4           0  0  0
    3.0718    1.0041   -6.7782 C   0  0  0  0  0  4           0  0  0
   -3.8786    0.7089   -2.6897 C   0  0  0  0  0  4           0  0  0
   -1.7962   -0.0834   -3.7233 C   0  0  0  0  0  4           0  0  0
   -3.6572    2.0860   -3.3273 C   0  0  0  0  0  4           0  0  0
   -1.5950    1.2992   -4.3548 C   0  0  0  0  0  4           0  0  0
   -2.6904    3.2832   -5.1863 C   0  0  0  0  0  4           0  0  0
   -2.1573    0.0391    7.2644 C   0  0  0  0  0  4           0  0  0
    3.3356    0.5516   -8.1651 C   0  0  1  0  0  4           0  0  0
    2.2904   -0.2623   -8.8849 C   0  0  0  0  0  4           0  0  0
    2.5748    1.1411   -9.3248 C   0  0  0  0  0  4           0  0  0
  1 11  1  0     0  0
  1 12  1  0     0  0
  2 24  2  0     0  0
  3  4  1  0     0  0
  3 13  1  0     0  0
  4 16  2  0     0  0
  5 11  1  0     0  0
  5 14  2  0     0  0
  6 11  2  0     0  0
  6 15  1  0     0  0
  7 13  1  0     0  0
  7 14  1  0     0  0
  8 15  1  0     0  0
  8 25  1  0     0  0
  8 26  1  0     0  0
  9 17  1  0     0  0
  9 24  1  0     0  0
 10 27  1  0     0  0
 10 28  1  0     0  0
 10 29  1  0     0  0
 12 18  2  0     0  0
 12 19  1  0     0  0
 13 21  2  0     0  0
 14 20  1  0     0  0
 15 20  2  0     0  0
 16 21  1  0     0  0
 16 30  1  0     0  0
 17 22  2  0     0  0
 17 23  1  0     0  0
 18 22  1  0     0  0
 19 23  2  0     0  0
 24 31  1  0     0  0
 25 27  1  0     0  0
 26 28  1  0     0  0
 31 32  1  0     0  0
 31 33  1  0     0  0
 32 33  1  0     0  0
M  END
> <standard_type>
pIC50

> <# Confs.>
25

> <canonical_smiles>
CC1=NNC(NC2=NC(SC3=CC=C(NC(C4CC4)=O)C=C3)=NC(N5CCN(C)CC5)=C2)=C1

> <standard_relation>
=

> <Publication_ID>
nan

> <predicted_activity_value>
7.886056647693163

> <actual_activity_value>
7.7447274948966935

> <Compound>
10

> <standard_units>
nM

> hash
7402733853492314349

$$$$
9
XXILIB    08252103493D 0   0.00000     0.00000

 33 37  0     1  0            999 V2000
    1.7803    0.0000   -0.0000 S   0  0  0  0  0  2           0  0  0
    3.0588   -6.5169   -2.2017 O   0  0  0  0  0  2           0  0  0
   -0.9940    0.0227    3.9348 N   0  0  0  0  0  3           0  0  0
   -0.7593    0.0238    5.2572 N   0  0  0  0  0  3           0  0  0
   -0.6499   -0.0000    1.1793 N   0  0  0  0  0  3           0  0  0
   -0.5925    0.0264   -1.2120 N   0  0  0  0  0  3           0  0  0
   -2.7679    0.0276    2.3298 N   0  0  0  0  0  3           0  0  0
   -2.5770    0.0695   -2.4961 N   0  0  2  0  0  3           0  0  0
    2.8891   -5.8844    0.0372 N   0  0  0  0  0  3           0  0  0
   -3.7451    0.4274   -5.0722 N   0  0  2  0  0  3           0  0  0
    0.0000    0.0000    0.0000 C   0  0  0  0  0  4           0  0  0
    2.0917   -1.7457    0.0000 C   0  0  0  0  0  4           0  0  0
   -2.3209    0.0325    3.6051 C   0  0  0  0  0  4           0  0  0
   -2.0016    0.0121    1.1403 C   0  0  0  0  0  4           0  0  0
   -1.9480    0.0445   -1.2661 C   0  0  0  0  0  4           0  0  0
   -1.9852    0.0405    5.7947 C   0  0  0  0  0  4           0  0  0
    2.6224   -4.5027   -0.0098 C   0  0  0  0  0  4           0  0  0
    2.2162   -2.4437    1.2055 C   0  0  0  0  0  4           0  0  0
    2.2390   -2.4320   -1.2097 C   0  0  0  0  0  4           0  0  0
   -2.6800    0.0398   -0.0788 C   0  0  0  0  0  4           0  0  0
   -2.9954    0.0455    4.8038 C   0  0  0  0  0  4           0  0  0
    2.4780   -3.8158    1.2000 C   0  0  0  0  0  4           0  0  0
    2.5012   -3.8046   -1.2160 C   0  0  0  0  0  4           0  0  0
    3.0718   -6.7782   -1.0041 C   0  0  0  0  0  4           0  0  0
   -1.7264    0.0751   -3.6883 C   0  0  0  0  0  4           0  0  0
   -3.9018    0.6835   -2.6171 C   0  0  0  0  0  4           0  0  0
   -2.5142   -0.3584   -4.9256 C   0  0  0  0  0  4           0  0  0
   -4.6026    0.2258   -3.8982 C   0  0  0  0  0  4           0  0  0
   -4.4517    0.0463   -6.2950 C   0  0  0  0  0  4           0  0  0
   -2.1573    0.0391    7.2644 C   0  0  0  0  0  4           0  0  0
    3.3356   -8.1651   -0.5516 C   0  0  1  0  0  4           0  0  0
    4.6427   -8.8219   -0.9165 C   0  0  0  0  0  4           0  0  0
    4.3704   -8.4455    0.5076 C   0  0  0  0  0  4           0  0  0
  1 11  1  0     0  0
  1 12  1  0     0  0
  2 24  2  0     0  0
  3  4  1  0     0  0
  3 13  1  0     0  0
  4 16  2  0     0  0
  5 11  1  0     0  0
  5 14  2  0     0  0
  6 11  2  0     0  0
  6 15  1  0     0  0
  7 13  1  0     0  0
  7 14  1  0     0  0
  8 15  1  0     0  0
  8 25  1  0     0  0
  8 26  1  0     0  0
  9 17  1  0     0  0
  9 24  1  0     0  0
 10 27  1  0     0  0
 10 28  1  0     0  0
 10 29  1  0     0  0
 12 18  2  0     0  0
 12 19  1  0     0  0
 13 21  2  0     0  0
 14 20  1  0     0  0
 15 20  2  0     0  0
 16 21  1  0     0  0
 16 30  1  0     0  0
 17 22  2  0     0  0
 17 23  1  0     0  0
 18 22  1  0     0  0
 19 23  2  0     0  0
 24 31  1  0     0  0
 25 27  1  0     0  0
 26 28  1  0     0  0
 31 32  1  0     0  0
 31 33  1  0     0  0
 32 33  1  0     0  0
M  END
> <standard_type>
pIC50

> <# Confs.>
25

> <canonical_smiles>
CC1=NNC(NC2=NC(SC3=CC=C(NC(C4CC4)=O)C=C3)=NC(N5CCN(C)CC5)=C2)=C1

> <standard_relation>
=

> <Publication_ID>
nan

> <predicted_activity_value>
7.886056647693163

> <actual_activity_value>
7.7447274948966935

> <Compound>
10

> <standard_units>
nM

> hash
7402733853492314349

$$$$
11
XXILIB    08252103493D 0   0.00000     0.00000

 42 46  0     1  0            999 V2000
   -6.9270    0.3445    3.1148 S   0  0  0  0  0  2           0  0  0
  -10.0060    2.9659    5.6013 S   0  0  2  0  0  6           0  0  0
   -7.4063   -0.4841    8.2801 F   0  0  0  0  0  1           0  0  0
  -11.0907    2.0319    5.8349 O   0  0  0  0  0  2           0  0  0
  -10.2087    4.3903    5.7874 O   0  0  0  0  0  2           0  0  0
    1.3663   -0.0000    0.0000 O   0  0  0  0  0  2           0  0  0
    0.2150   -0.0040    2.3369 O   0  0  0  0  0  2           0  0  0
    4.6360   -5.8315   -5.3810 O   0  0  0  0  0  2           0  0  0
   -6.9609    1.0655    0.6466 N   0  0  0  0  0  3           0  0  0
   -4.9297   -0.0274   -1.0290 N   0  0  0  0  0  3           0  0  0
   -2.8681    0.0032   -2.2504 N   0  0  0  0  0  3           0  0  0
   -9.3448    2.6880    4.0550 N   0  0  0  0  0  3           0  0  0
   -4.9574   -0.0282    1.3548 N   0  0  0  0  0  3           0  0  0
    3.9895   -1.1211   -3.3670 N   0  0  1  0  0  3           0  0  0
   -6.2012    0.4712    1.5473 C   0  0  0  0  0  4           0  0  0
   -8.3382    1.1192    2.5352 C   0  0  0  0  0  4           0  0  0
   -8.6569    2.4874    6.6310 C   0  0  0  0  0  4           0  0  0
   -7.5108    0.7896    7.8767 C   0  0  0  0  0  4           0  0  0
    0.0000    0.0000    0.0000 C   0  0  0  0  0  4           0  0  0
   -0.6183    0.0000    1.2539 C   0  0  0  0  0  4           0  0  0
   -4.2048   -0.0171   -2.1556 C   0  0  0  0  0  4           0  0  0
   -4.2418    0.0017    0.1400 C   0  0  0  0  0  4           0  0  0
   -2.1835    0.0057   -1.0994 C   0  0  0  0  0  4           0  0  0
   -8.1690    1.4311    1.2037 C   0  0  0  0  0  4           0  0  0
   -2.8217    0.0002    0.1558 C   0  0  0  0  0  4           0  0  0
   -8.5661    1.1599    7.0485 C   0  0  0  0  0  4           0  0  0
   -7.7189    3.4356    7.0418 C   0  0  0  0  0  4           0  0  0
   -6.5617    1.7189    8.2934 C   0  0  0  0  0  4           0  0  0
   -0.7915    0.0082   -1.1551 C   0  0  0  0  0  4           0  0  0
   -2.0168   -0.0093    1.3250 C   0  0  0  0  0  4           0  0  0
   -6.6688    3.0442    7.8744 C   0  0  0  0  0  4           0  0  0
    1.9791    0.0000   -1.2891 C   0  0  0  0  0  4           0  0  0
    4.3754   -4.5608   -5.9639 C   0  0  0  0  0  4           0  0  0
   -0.4342   -0.0039    3.6055 C   0  0  0  0  0  4           0  0  0
   -9.5063    1.3690    3.4175 C   0  0  0  0  0  4           0  0  0
    4.2274    0.0000   -2.4549 C   0  0  0  0  0  4           0  0  0
    4.7787   -0.9463   -4.5960 C   0  0  0  0  0  4           0  0  0
    4.3002   -2.4127   -2.7332 C   0  0  0  0  0  4           0  0  0
    4.7582   -3.4431   -5.0032 C   0  0  1  0  0  4           0  0  0
    3.4927    0.0000   -1.1154 C   0  0  0  0  0  4           0  0  0
    4.4877   -2.0579   -5.6058 C   0  0  0  0  0  4           0  0  0
    4.0059   -3.5823   -3.6761 C   0  0  0  0  0  4           0  0  0
  1 15  1  0     0  0
  1 16  1  0     0  0
  2  4  2  0     0  0
  2  5  2  0     0  0
  2 12  1  0     0  0
  2 17  1  0     0  0
  3 18  1  0     0  0
  6 19  1  0     0  0
  6 32  1  0     0  0
  7 20  1  0     0  0
  7 34  1  0     0  0
  8 33  1  0     0  0
  9 15  2  0     0  0
  9 24  1  0     0  0
 10 21  1  0     0  0
 10 22  2  0     0  0
 11 21  2  0     0  0
 11 23  1  0     0  0
 12 35  1  0     0  0
 13 15  1  0     0  0
 13 22  1  0     0  0
 14 36  1  0     0  0
 14 37  1  0     0  0
 14 38  1  0     0  0
 16 24  2  0     0  0
 16 35  1  0     0  0
 17 26  1  0     0  0
 17 27  2  0     0  0
 18 26  2  0     0  0
 18 28  1  0     0  0
 19 20  1  0     0  0
 19 29  2  0     0  0
 20 30  2  0     0  0
 22 25  1  0     0  0
 23 25  2  0     0  0
 23 29  1  0     0  0
 25 30  1  0     0  0
 27 31  1  0     0  0
 28 31  2  0     0  0
 32 40  1  0     0  0
 33 39  1  0     0  0
 36 40  1  0     0  0
 37 41  1  0     0  0
 38 42  1  0     0  0
 39 41  1  0     0  0
 39 42  1  0     0  0
M  END
> <standard_type>
pIC50

> <# Confs.>
25

> <canonical_smiles>
OCC1CCN(CCCOC2=CC(N=CN=C3NC4=NC=C(CNS(=O)(C5=CC=CC(F)=C5)=O)S4)=C3C=C2OC)CC1

> <standard_relation>
=

> <Publication_ID>
nan

> <predicted_activity_value>
7.795880017344075

> <actual_activity_value>
7.552841968657781

> <Compound>
12

> <standard_units>
nM

> hash
16551182519414113262

$$$$
11
XXILIB    08252103493D 0   0.00000     0.00000

 42 46  0     1  0            999 V2000
   -6.8888   -0.5644    3.1149 S   0  0  0  0  0  2           0  0  0
  -11.3554   -0.4966    4.7212 S   0  0  2  0  0  6           0  0  0
   -7.8003    0.8837    8.0817 F   0  0  0  0  0  1           0  0  0
  -11.4010   -1.6783    5.5607 O   0  0  0  0  0  2           0  0  0
  -12.5818    0.1436    4.2849 O   0  0  0  0  0  2           0  0  0
    1.3663   -0.0000    0.0000 O   0  0  0  0  0  2           0  0  0
    0.2150   -0.0040    2.3369 O   0  0  0  0  0  2           0  0  0
    4.6360   -5.8315   -5.3810 O   0  0  0  0  0  2           0  0  0
   -6.8594   -1.2913    0.6484 N   0  0  0  0  0  3           0  0  0
   -4.9297   -0.0274   -1.0290 N   0  0  0  0  0  3           0  0  0
   -2.8681    0.0032   -2.2504 N   0  0  0  0  0  3           0  0  0
  -10.3674   -0.8042    3.3666 N   0  0  0  0  0  3           0  0  0
   -4.9574   -0.0282    1.3548 N   0  0  0  0  0  3           0  0  0
    3.9895   -1.1211   -3.3670 N   0  0  1  0  0  3           0  0  0
   -6.1549   -0.6302    1.5474 C   0  0  0  0  0  4           0  0  0
   -8.2126   -1.4866    2.5451 C   0  0  0  0  0  4           0  0  0
  -10.3967    0.7208    5.5626 C   0  0  0  0  0  4           0  0  0
   -8.7138    1.2688    7.1799 C   0  0  0  0  0  4           0  0  0
    0.0000    0.0000    0.0000 C   0  0  0  0  0  4           0  0  0
   -0.6183    0.0000    1.2539 C   0  0  0  0  0  4           0  0  0
   -4.2048   -0.0171   -2.1556 C   0  0  0  0  0  4           0  0  0
   -4.2418    0.0017    0.1400 C   0  0  0  0  0  4           0  0  0
   -2.1835    0.0057   -1.0994 C   0  0  0  0  0  4           0  0  0
   -8.0217   -1.7765    1.2115 C   0  0  0  0  0  4           0  0  0
   -2.8217    0.0002    0.1558 C   0  0  0  0  0  4           0  0  0
   -9.4553    0.3047    6.5036 C   0  0  0  0  0  4           0  0  0
  -10.6065    2.0767    5.3073 C   0  0  0  0  0  4           0  0  0
   -8.9040    2.6261    6.9360 C   0  0  0  0  0  4           0  0  0
   -0.7915    0.0082   -1.1551 C   0  0  0  0  0  4           0  0  0
   -2.0168   -0.0093    1.3250 C   0  0  0  0  0  4           0  0  0
   -9.8537    3.0283    5.9979 C   0  0  0  0  0  4           0  0  0
    1.9791    0.0000   -1.2891 C   0  0  0  0  0  4           0  0  0
    4.3754   -4.5608   -5.9639 C   0  0  0  0  0  4           0  0  0
   -0.4342   -0.0039    3.6055 C   0  0  0  0  0  4           0  0  0
   -9.3411   -1.8597    3.4353 C   0  0  0  0  0  4           0  0  0
    4.2274    0.0000   -2.4549 C   0  0  0  0  0  4           0  0  0
    4.7787   -0.9463   -4.5960 C   0  0  0  0  0  4           0  0  0
    4.3002   -2.4127   -2.7332 C   0  0  0  0  0  4           0  0  0
    4.7582   -3.4431   -5.0032 C   0  0  1  0  0  4           0  0  0
    3.4927    0.0000   -1.1154 C   0  0  0  0  0  4           0  0  0
    4.4877   -2.0579   -5.6058 C   0  0  0  0  0  4           0  0  0
    4.0059   -3.5823   -3.6761 C   0  0  0  0  0  4           0  0  0
  1 15  1  0     0  0
  1 16  1  0     0  0
  2  4  2  0     0  0
  2  5  2  0     0  0
  2 12  1  0     0  0
  2 17  1  0     0  0
  3 18  1  0     0  0
  6 19  1  0     0  0
  6 32  1  0     0  0
  7 20  1  0     0  0
  7 34  1  0     0  0
  8 33  1  0     0  0
  9 15  2  0     0  0
  9 24  1  0     0  0
 10 21  1  0     0  0
 10 22  2  0     0  0
 11 21  2  0     0  0
 11 23  1  0     0  0
 12 35  1  0     0  0
 13 15  1  0     0  0
 13 22  1  0     0  0
 14 36  1  0     0  0
 14 37  1  0     0  0
 14 38  1  0     0  0
 16 24  2  0     0  0
 16 35  1  0     0  0
 17 26  1  0     0  0
 17 27  2  0     0  0
 18 26  2  0     0  0
 18 28  1  0     0  0
 19 20  1  0     0  0
 19 29  2  0     0  0
 20 30  2  0     0  0
 22 25  1  0     0  0
 23 25  2  0     0  0
 23 29  1  0     0  0
 25 30  1  0     0  0
 27 31  1  0     0  0
 28 31  2  0     0  0
 32 40  1  0     0  0
 33 39  1  0     0  0
 36 40  1  0     0  0
 37 41  1  0     0  0
 38 42  1  0     0  0
 39 41  1  0     0  0
 39 42  1  0     0  0
M  END
> <standard_type>
pIC50

> <# Confs.>
25

> <canonical_smiles>
OCC1CCN(CCCOC2=CC(N=CN=C3NC4=NC=C(CNS(=O)(C5=CC=CC(F)=C5)=O)S4)=C3C=C2OC)CC1

> <standard_relation>
=

> <Publication_ID>
nan

> <predicted_activity_value>
7.795880017344075

> <actual_activity_value>
7.552841968657781

> <Compound>
12

> <standard_units>
nM

> hash
16551182519414113262

$$$$
11
XXILIB    08252103493D 0   0.00000     0.00000

 42 46  0     1  0            999 V2000
   -6.9270    0.3445    3.1148 S   0  0  0  0  0  2           0  0  0
  -12.0887    0.4314    3.5617 S   0  0  2  0  0  6           0  0  0
  -13.0621    3.5336   -0.3454 F   0  0  0  0  0  1           0  0  0
  -12.3173    1.6463    4.3201 O   0  0  0  0  0  2           0  0  0
  -12.6877   -0.8215    3.9812 O   0  0  0  0  0  2           0  0  0
    1.3663   -0.0000    0.0000 O   0  0  0  0  0  2           0  0  0
    0.2150   -0.0040    2.3369 O   0  0  0  0  0  2           0  0  0
    4.6360   -5.8315   -5.3810 O   0  0  0  0  0  2           0  0  0
   -6.9609    1.0655    0.6466 N   0  0  0  0  0  3           0  0  0
   -4.9297   -0.0274   -1.0290 N   0  0  0  0  0  3           0  0  0
   -2.8681    0.0032   -2.2504 N   0  0  0  0  0  3           0  0  0
  -10.4129    0.2095    3.3428 N   0  0  0  0  0  3           0  0  0
   -4.9574   -0.0282    1.3548 N   0  0  0  0  0  3           0  0  0
    3.9895   -1.1211   -3.3670 N   0  0  1  0  0  3           0  0  0
   -6.2012    0.4712    1.5473 C   0  0  0  0  0  4           0  0  0
   -8.3382    1.1192    2.5352 C   0  0  0  0  0  4           0  0  0
  -12.6041    0.7316    1.9024 C   0  0  0  0  0  4           0  0  0
  -13.0470    2.2790    0.1255 C   0  0  0  0  0  4           0  0  0
    0.0000    0.0000    0.0000 C   0  0  0  0  0  4           0  0  0
   -0.6183    0.0000    1.2539 C   0  0  0  0  0  4           0  0  0
   -4.2048   -0.0171   -2.1556 C   0  0  0  0  0  4           0  0  0
   -4.2418    0.0017    0.1400 C   0  0  0  0  0  4           0  0  0
   -2.1835    0.0057   -1.0994 C   0  0  0  0  0  4           0  0  0
   -8.1690    1.4311    1.2037 C   0  0  0  0  0  4           0  0  0
   -2.8217    0.0002    0.1558 C   0  0  0  0  0  4           0  0  0
  -12.6214    2.0434    1.4294 C   0  0  0  0  0  4           0  0  0
  -13.0163   -0.3291    1.0944 C   0  0  0  0  0  4           0  0  0
  -13.4571    1.2344   -0.6984 C   0  0  0  0  0  4           0  0  0
   -0.7915    0.0082   -1.1551 C   0  0  0  0  0  4           0  0  0
   -2.0168   -0.0093    1.3250 C   0  0  0  0  0  4           0  0  0
  -13.4417   -0.0713   -0.2101 C   0  0  0  0  0  4           0  0  0
    1.9791    0.0000   -1.2891 C   0  0  0  0  0  4           0  0  0
    4.3754   -4.5608   -5.9639 C   0  0  0  0  0  4           0  0  0
   -0.4342   -0.0039    3.6055 C   0  0  0  0  0  4           0  0  0
   -9.5063    1.3690    3.4175 C   0  0  0  0  0  4           0  0  0
    4.2274    0.0000   -2.4549 C   0  0  0  0  0  4           0  0  0
    4.7787   -0.9463   -4.5960 C   0  0  0  0  0  4           0  0  0
    4.3002   -2.4127   -2.7332 C   0  0  0  0  0  4           0  0  0
    4.7582   -3.4431   -5.0032 C   0  0  1  0  0  4           0  0  0
    3.4927    0.0000   -1.1154 C   0  0  0  0  0  4           0  0  0
    4.4877   -2.0579   -5.6058 C   0  0  0  0  0  4           0  0  0
    4.0059   -3.5823   -3.6761 C   0  0  0  0  0  4           0  0  0
  1 15  1  0     0  0
  1 16  1  0     0  0
  2  4  2  0     0  0
  2  5  2  0     0  0
  2 12  1  0     0  0
  2 17  1  0     0  0
  3 18  1  0     0  0
  6 19  1  0     0  0
  6 32  1  0     0  0
  7 20  1  0     0  0
  7 34  1  0     0  0
  8 33  1  0     0  0
  9 15  2  0     0  0
  9 24  1  0     0  0
 10 21  1  0     0  0
 10 22  2  0     0  0
 11 21  2  0     0  0
 11 23  1  0     0  0
 12 35  1  0     0  0
 13 15  1  0     0  0
 13 22  1  0     0  0
 14 36  1  0     0  0
 14 37  1  0     0  0
 14 38  1  0     0  0
 16 24  2  0     0  0
 16 35  1  0     0  0
 17 26  1  0     0  0
 17 27  2  0     0  0
 18 26  2  0     0  0
 18 28  1  0     0  0
 19 20  1  0     0  0
 19 29  2  0     0  0
 20 30  2  0     0  0
 22 25  1  0     0  0
 23 25  2  0     0  0
 23 29  1  0     0  0
 25 30  1  0     0  0
 27 31  1  0     0  0
 28 31  2  0     0  0
 32 40  1  0     0  0
 33 39  1  0     0  0
 36 40  1  0     0  0
 37 41  1  0     0  0
 38 42  1  0     0  0
 39 41  1  0     0  0
 39 42  1  0     0  0
M  END
> <standard_type>
pIC50

> <# Confs.>
25

> <canonical_smiles>
OCC1CCN(CCCOC2=CC(N=CN=C3NC4=NC=C(CNS(=O)(C5=CC=CC(F)=C5)=O)S4)=C3C=C2OC)CC1

> <standard_relation>
=

> <Publication_ID>
nan

> <predicted_activity_value>
7.795880017344075

> <actual_activity_value>
7.552841968657781

> <Compound>
12

> <standard_units>
nM

> hash
16551182519414113262

$$$$
11
XXILIB    08252103493D 0   0.00000     0.00000

 42 46  0     1  0            999 V2000
   -6.9270    0.3445    3.1148 S   0  0  0  0  0  2           0  0  0
  -10.0060    2.9659    5.6013 S   0  0  2  0  0  6           0  0  0
   -7.4063   -0.4841    8.2801 F   0  0  0  0  0  1           0  0  0
  -11.0907    2.0319    5.8349 O   0  0  0  0  0  2           0  0  0
  -10.2087    4.3903    5.7874 O   0  0  0  0  0  2           0  0  0
    1.3663    0.0000    0.0000 O   0  0  0  0  0  2           0  0  0
    0.2150   -0.0040    2.3369 O   0  0  0  0  0  2           0  0  0
    5.0174    4.4515   -7.1767 O   0  0  0  0  0  2           0  0  0
   -6.9609    1.0655    0.6466 N   0  0  0  0  0  3           0  0  0
   -4.9297   -0.0274   -1.0290 N   0  0  0  0  0  3           0  0  0
   -2.8681    0.0032   -2.2504 N   0  0  0  0  0  3           0  0  0
   -9.3448    2.6880    4.0550 N   0  0  0  0  0  3           0  0  0
   -4.9574   -0.0282    1.3548 N   0  0  0  0  0  3           0  0  0
    3.9895    1.1211   -3.3670 N   0  0  1  0  0  3           0  0  0
   -6.2012    0.4712    1.5473 C   0  0  0  0  0  4           0  0  0
   -8.3382    1.1192    2.5352 C   0  0  0  0  0  4           0  0  0
   -8.6569    2.4874    6.6310 C   0  0  0  0  0  4           0  0  0
   -7.5108    0.7896    7.8767 C   0  0  0  0  0  4           0  0  0
    0.0000    0.0000    0.0000 C   0  0  0  0  0  4           0  0  0
   -0.6183    0.0000    1.2539 C   0  0  0  0  0  4           0  0  0
   -4.2048   -0.0171   -2.1556 C   0  0  0  0  0  4           0  0  0
   -4.2418    0.0017    0.1400 C   0  0  0  0  0  4           0  0  0
   -2.1835    0.0057   -1.0994 C   0  0  0  0  0  4           0  0  0
   -8.1690    1.4311    1.2037 C   0  0  0  0  0  4           0  0  0
   -2.8217    0.0002    0.1558 C   0  0  0  0  0  4           0  0  0
   -8.5661    1.1599    7.0485 C   0  0  0  0  0  4           0  0  0
   -7.7189    3.4356    7.0418 C   0  0  0  0  0  4           0  0  0
   -6.5617    1.7189    8.2934 C   0  0  0  0  0  4           0  0  0
   -0.7915    0.0082   -1.1551 C   0  0  0  0  0  4           0  0  0
   -2.0168   -0.0093    1.3250 C   0  0  0  0  0  4           0  0  0
   -6.6688    3.0442    7.8744 C   0  0  0  0  0  4           0  0  0
    1.9791    0.0000   -1.2891 C   0  0  0  0  0  4           0  0  0
    4.3662    4.5941   -5.9205 C   0  0  0  0  0  4           0  0  0
   -0.4342   -0.0039    3.6055 C   0  0  0  0  0  4           0  0  0
   -9.5063    1.3690    3.4175 C   0  0  0  0  0  4           0  0  0
    4.2274    0.0000   -2.4549 C   0  0  0  0  0  4           0  0  0
    4.3812    2.3848   -2.7240 C   0  0  0  0  0  4           0  0  0
    4.7054    0.9464   -4.6411 C   0  0  0  0  0  4           0  0  0
    4.7543    3.4572   -4.9849 C   0  0  1  0  0  4           0  0  0
    3.4927   -0.0000   -1.1154 C   0  0  0  0  0  4           0  0  0
    4.0658    3.5846   -3.6192 C   0  0  0  0  0  4           0  0  0
    4.4159    2.0988   -5.6066 C   0  0  0  0  0  4           0  0  0
  1 15  1  0     0  0
  1 16  1  0     0  0
  2  4  2  0     0  0
  2  5  2  0     0  0
  2 12  1  0     0  0
  2 17  1  0     0  0
  3 18  1  0     0  0
  6 19  1  0     0  0
  6 32  1  0     0  0
  7 20  1  0     0  0
  7 34  1  0     0  0
  8 33  1  0     0  0
  9 15  2  0     0  0
  9 24  1  0     0  0
 10 21  1  0     0  0
 10 22  2  0     0  0
 11 21  2  0     0  0
 11 23  1  0     0  0
 12 35  1  0     0  0
 13 15  1  0     0  0
 13 22  1  0     0  0
 14 36  1  0     0  0
 14 37  1  0     0  0
 14 38  1  0     0  0
 16 24  2  0     0  0
 16 35  1  0     0  0
 17 26  1  0     0  0
 17 27  2  0     0  0
 18 26  2  0     0  0
 18 28  1  0     0  0
 19 20  1  0     0  0
 19 29  2  0     0  0
 20 30  2  0     0  0
 22 25  1  0     0  0
 23 25  2  0     0  0
 23 29  1  0     0  0
 25 30  1  0     0  0
 27 31  1  0     0  0
 28 31  2  0     0  0
 32 40  1  0     0  0
 33 39  1  0     0  0
 36 40  1  0     0  0
 37 41  1  0     0  0
 38 42  1  0     0  0
 39 41  1  0     0  0
 39 42  1  0     0  0
M  END
> <standard_type>
pIC50

> <# Confs.>
25

> <canonical_smiles>
OCC1CCN(CCCOC2=CC(N=CN=C3NC4=NC=C(CNS(=O)(C5=CC=CC(F)=C5)=O)S4)=C3C=C2OC)CC1

> <standard_relation>
=

> <Publication_ID>
nan

> <predicted_activity_value>
7.795880017344075

> <actual_activity_value>
7.552841968657781

> <Compound>
12

> <standard_units>
nM

> hash
16551182519414113262

$$$$
11
XXILIB    08252103493D 0   0.00000     0.00000

 42 46  0     1  0            999 V2000
   -6.9270    0.3445    3.1148 S   0  0  0  0  0  2           0  0  0
  -10.0060    2.9659    5.6013 S   0  0  2  0  0  6           0  0  0
   -5.7359    3.9792    8.1657 F   0  0  0  0  0  1           0  0  0
  -11.0907    2.0319    5.8349 O   0  0  0  0  0  2           0  0  0
  -10.2087    4.3903    5.7874 O   0  0  0  0  0  2           0  0  0
    1.3663   -0.0000    0.0000 O   0  0  0  0  0  2           0  0  0
    0.2150   -0.0040    2.3369 O   0  0  0  0  0  2           0  0  0
    4.6360   -5.8315   -5.3810 O   0  0  0  0  0  2           0  0  0
   -6.9609    1.0655    0.6466 N   0  0  0  0  0  3           0  0  0
   -4.9297   -0.0274   -1.0290 N   0  0  0  0  0  3           0  0  0
   -2.8681    0.0032   -2.2504 N   0  0  0  0  0  3           0  0  0
   -9.3448    2.6880    4.0550 N   0  0  0  0  0  3           0  0  0
   -4.9574   -0.0282    1.3548 N   0  0  0  0  0  3           0  0  0
    3.9895   -1.1211   -3.3670 N   0  0  1  0  0  3           0  0  0
   -6.2012    0.4712    1.5473 C   0  0  0  0  0  4           0  0  0
   -8.3382    1.1192    2.5352 C   0  0  0  0  0  4           0  0  0
   -8.6569    2.4874    6.6310 C   0  0  0  0  0  4           0  0  0
   -6.6431    3.0643    7.7969 C   0  0  0  0  0  4           0  0  0
    0.0000    0.0000    0.0000 C   0  0  0  0  0  4           0  0  0
   -0.6183    0.0000    1.2539 C   0  0  0  0  0  4           0  0  0
   -4.2048   -0.0171   -2.1556 C   0  0  0  0  0  4           0  0  0
   -4.2418    0.0017    0.1400 C   0  0  0  0  0  4           0  0  0
   -2.1835    0.0057   -1.0994 C   0  0  0  0  0  4           0  0  0
   -8.1690    1.4311    1.2037 C   0  0  0  0  0  4           0  0  0
   -2.8217    0.0002    0.1558 C   0  0  0  0  0  4           0  0  0
   -7.7171    3.4492    7.0001 C   0  0  0  0  0  4           0  0  0
   -8.5234    1.1591    7.0380 C   0  0  0  0  0  4           0  0  0
   -6.4946    1.7456    8.2180 C   0  0  0  0  0  4           0  0  0
   -0.7915    0.0082   -1.1551 C   0  0  0  0  0  4           0  0  0
   -2.0168   -0.0093    1.3250 C   0  0  0  0  0  4           0  0  0
   -7.4377    0.7929    7.8354 C   0  0  0  0  0  4           0  0  0
    1.9791    0.0000   -1.2891 C   0  0  0  0  0  4           0  0  0
    4.3754   -4.5608   -5.9639 C   0  0  0  0  0  4           0  0  0
   -0.4342   -0.0039    3.6055 C   0  0  0  0  0  4           0  0  0
   -9.5063    1.3690    3.4175 C   0  0  0  0  0  4           0  0  0
    4.2274    0.0000   -2.4549 C   0  0  0  0  0  4           0  0  0
    4.7787   -0.9463   -4.5960 C   0  0  0  0  0  4           0  0  0
    4.3002   -2.4127   -2.7332 C   0  0  0  0  0  4           0  0  0
    4.7582   -3.4431   -5.0032 C   0  0  1  0  0  4           0  0  0
    3.4927    0.0000   -1.1154 C   0  0  0  0  0  4           0  0  0
    4.4877   -2.0579   -5.6058 C   0  0  0  0  0  4           0  0  0
    4.0059   -3.5823   -3.6761 C   0  0  0  0  0  4           0  0  0
  1 15  1  0     0  0
  1 16  1  0     0  0
  2  4  2  0     0  0
  2  5  2  0     0  0
  2 12  1  0     0  0
  2 17  1  0     0  0
  3 18  1  0     0  0
  6 19  1  0     0  0
  6 32  1  0     0  0
  7 20  1  0     0  0
  7 34  1  0     0  0
  8 33  1  0     0  0
  9 15  2  0     0  0
  9 24  1  0     0  0
 10 21  1  0     0  0
 10 22  2  0     0  0
 11 21  2  0     0  0
 11 23  1  0     0  0
 12 35  1  0     0  0
 13 15  1  0     0  0
 13 22  1  0     0  0
 14 36  1  0     0  0
 14 37  1  0     0  0
 14 38  1  0     0  0
 16 24  2  0     0  0
 16 35  1  0     0  0
 17 26  1  0     0  0
 17 27  2  0     0  0
 18 26  2  0     0  0
 18 28  1  0     0  0
 19 20  1  0     0  0
 19 29  2  0     0  0
 20 30  2  0     0  0
 22 25  1  0     0  0
 23 25  2  0     0  0
 23 29  1  0     0  0
 25 30  1  0     0  0
 27 31  1  0     0  0
 28 31  2  0     0  0
 32 40  1  0     0  0
 33 39  1  0     0  0
 36 40  1  0     0  0
 37 41  1  0     0  0
 38 42  1  0     0  0
 39 41  1  0     0  0
 39 42  1  0     0  0
M  END
> <standard_type>
pIC50

> <# Confs.>
25

> <canonical_smiles>
OCC1CCN(CCCOC2=CC(N=CN=C3NC4=NC=C(CNS(=O)(C5=CC=CC(F)=C5)=O)S4)=C3C=C2OC)CC1

> <standard_relation>
=

> <Publication_ID>
nan

> <predicted_activity_value>
7.795880017344075

> <actual_activity_value>
7.552841968657781

> <Compound>
12

> <standard_units>
nM

> hash
16551182519414113262

$$$$
11
XXILIB    08252103493D 0   0.00000     0.00000

 42 46  0     1  0            999 V2000
   -6.8888   -0.5644    3.1149 S   0  0  0  0  0  2           0  0  0
  -11.3554   -0.4966    4.7212 S   0  0  2  0  0  6           0  0  0
   -7.8003    0.8837    8.0817 F   0  0  0  0  0  1           0  0  0
  -11.4010   -1.6783    5.5607 O   0  0  0  0  0  2           0  0  0
  -12.5818    0.1436    4.2849 O   0  0  0  0  0  2           0  0  0
    1.3663    0.0000    0.0000 O   0  0  0  0  0  2           0  0  0
    0.2150   -0.0040    2.3369 O   0  0  0  0  0  2           0  0  0
    5.0174    4.4515   -7.1767 O   0  0  0  0  0  2           0  0  0
   -6.8594   -1.2913    0.6484 N   0  0  0  0  0  3           0  0  0
   -4.9297   -0.0274   -1.0290 N   0  0  0  0  0  3           0  0  0
   -2.8681    0.0032   -2.2504 N   0  0  0  0  0  3           0  0  0
  -10.3674   -0.8042    3.3666 N   0  0  0  0  0  3           0  0  0
   -4.9574   -0.0282    1.3548 N   0  0  0  0  0  3           0  0  0
    3.9895    1.1211   -3.3670 N   0  0  1  0  0  3           0  0  0
   -6.1549   -0.6302    1.5474 C   0  0  0  0  0  4           0  0  0
   -8.2126   -1.4866    2.5451 C   0  0  0  0  0  4           0  0  0
  -10.3967    0.7208    5.5626 C   0  0  0  0  0  4           0  0  0
   -8.7138    1.2688    7.1799 C   0  0  0  0  0  4           0  0  0
    0.0000    0.0000    0.0000 C   0  0  0  0  0  4           0  0  0
   -0.6183    0.0000    1.2539 C   0  0  0  0  0  4           0  0  0
   -4.2048   -0.0171   -2.1556 C   0  0  0  0  0  4           0  0  0
   -4.2418    0.0017    0.1400 C   0  0  0  0  0  4           0  0  0
   -2.1835    0.0057   -1.0994 C   0  0  0  0  0  4           0  0  0
   -8.0217   -1.7765    1.2115 C   0  0  0  0  0  4           0  0  0
   -2.8217    0.0002    0.1558 C   0  0  0  0  0  4           0  0  0
   -9.4553    0.3047    6.5036 C   0  0  0  0  0  4           0  0  0
  -10.6065    2.0767    5.3073 C   0  0  0  0  0  4           0  0  0
   -8.9040    2.6261    6.9360 C   0  0  0  0  0  4           0  0  0
   -0.7915    0.0082   -1.1551 C   0  0  0  0  0  4           0  0  0
   -2.0168   -0.0093    1.3250 C   0  0  0  0  0  4           0  0  0
   -9.8537    3.0283    5.9979 C   0  0  0  0  0  4           0  0  0
    1.9791    0.0000   -1.2891 C   0  0  0  0  0  4           0  0  0
    4.3662    4.5941   -5.9205 C   0  0  0  0  0  4           0  0  0
   -0.4342   -0.0039    3.6055 C   0  0  0  0  0  4           0  0  0
   -9.3411   -1.8597    3.4353 C   0  0  0  0  0  4           0  0  0
    4.2274    0.0000   -2.4549 C   0  0  0  0  0  4           0  0  0
    4.3812    2.3848   -2.7240 C   0  0  0  0  0  4           0  0  0
    4.7054    0.9464   -4.6411 C   0  0  0  0  0  4           0  0  0
    4.7543    3.4572   -4.9849 C   0  0  1  0  0  4           0  0  0
    3.4927   -0.0000   -1.1154 C   0  0  0  0  0  4           0  0  0
    4.0658    3.5846   -3.6192 C   0  0  0  0  0  4           0  0  0
    4.4159    2.0988   -5.6066 C   0  0  0  0  0  4           0  0  0
  1 15  1  0     0  0
  1 16  1  0     0  0
  2  4  2  0     0  0
  2  5  2  0     0  0
  2 12  1  0     0  0
  2 17  1  0     0  0
  3 18  1  0     0  0
  6 19  1  0     0  0
  6 32  1  0     0  0
  7 20  1  0     0  0
  7 34  1  0     0  0
  8 33  1  0     0  0
  9 15  2  0     0  0
  9 24  1  0     0  0
 10 21  1  0     0  0
 10 22  2  0     0  0
 11 21  2  0     0  0
 11 23  1  0     0  0
 12 35  1  0     0  0
 13 15  1  0     0  0
 13 22  1  0     0  0
 14 36  1  0     0  0
 14 37  1  0     0  0
 14 38  1  0     0  0
 16 24  2  0     0  0
 16 35  1  0     0  0
 17 26  1  0     0  0
 17 27  2  0     0  0
 18 26  2  0     0  0
 18 28  1  0     0  0
 19 20  1  0     0  0
 19 29  2  0     0  0
 20 30  2  0     0  0
 22 25  1  0     0  0
 23 25  2  0     0  0
 23 29  1  0     0  0
 25 30  1  0     0  0
 27 31  1  0     0  0
 28 31  2  0     0  0
 32 40  1  0     0  0
 33 39  1  0     0  0
 36 40  1  0     0  0
 37 41  1  0     0  0
 38 42  1  0     0  0
 39 41  1  0     0  0
 39 42  1  0     0  0
M  END
> <standard_type>
pIC50

> <# Confs.>
25

> <canonical_smiles>
OCC1CCN(CCCOC2=CC(N=CN=C3NC4=NC=C(CNS(=O)(C5=CC=CC(F)=C5)=O)S4)=C3C=C2OC)CC1

> <standard_relation>
=

> <Publication_ID>
nan

> <predicted_activity_value>
7.795880017344075

> <actual_activity_value>
7.552841968657781

> <Compound>
12

> <standard_units>
nM

> hash
16551182519414113262

$$$$
11
XXILIB    08252103493D 0   0.00000     0.00000

 42 46  0     1  0            999 V2000
   -6.9270    0.3445    3.1148 S   0  0  0  0  0  2           0  0  0
  -10.0060    2.9659    5.6013 S   0  0  2  0  0  6           0  0  0
   -7.4063   -0.4841    8.2801 F   0  0  0  0  0  1           0  0  0
  -11.0907    2.0319    5.8349 O   0  0  0  0  0  2           0  0  0
  -10.2087    4.3903    5.7874 O   0  0  0  0  0  2           0  0  0
    1.3663   -0.0000    0.0000 O   0  0  0  0  0  2           0  0  0
    0.2150   -0.0040    2.3369 O   0  0  0  0  0  2           0  0  0
    6.8145   -3.4912   -6.3309 O   0  0  0  0  0  2           0  0  0
   -6.9609    1.0655    0.6466 N   0  0  0  0  0  3           0  0  0
   -4.9297   -0.0274   -1.0290 N   0  0  0  0  0  3           0  0  0
   -2.8681    0.0032   -2.2504 N   0  0  0  0  0  3           0  0  0
   -9.3448    2.6880    4.0550 N   0  0  0  0  0  3           0  0  0
   -4.9574   -0.0282    1.3548 N   0  0  0  0  0  3           0  0  0
    3.9895   -1.1211   -3.3670 N   0  0  1  0  0  3           0  0  0
   -6.2012    0.4712    1.5473 C   0  0  0  0  0  4           0  0  0
   -8.3382    1.1192    2.5352 C   0  0  0  0  0  4           0  0  0
   -8.6569    2.4874    6.6310 C   0  0  0  0  0  4           0  0  0
   -7.5108    0.7896    7.8767 C   0  0  0  0  0  4           0  0  0
    0.0000    0.0000    0.0000 C   0  0  0  0  0  4           0  0  0
   -0.6183    0.0000    1.2539 C   0  0  0  0  0  4           0  0  0
   -4.2048   -0.0171   -2.1556 C   0  0  0  0  0  4           0  0  0
   -4.2418    0.0017    0.1400 C   0  0  0  0  0  4           0  0  0
   -2.1835    0.0057   -1.0994 C   0  0  0  0  0  4           0  0  0
   -8.1690    1.4311    1.2037 C   0  0  0  0  0  4           0  0  0
   -2.8217    0.0002    0.1558 C   0  0  0  0  0  4           0  0  0
   -8.5661    1.1599    7.0485 C   0  0  0  0  0  4           0  0  0
   -7.7189    3.4356    7.0418 C   0  0  0  0  0  4           0  0  0
   -6.5617    1.7189    8.2934 C   0  0  0  0  0  4           0  0  0
   -0.7915    0.0082   -1.1551 C   0  0  0  0  0  4           0  0  0
   -2.0168   -0.0093    1.3250 C   0  0  0  0  0  4           0  0  0
   -6.6688    3.0442    7.8744 C   0  0  0  0  0  4           0  0  0
    1.9791    0.0000   -1.2891 C   0  0  0  0  0  4           0  0  0
    6.2453   -3.6554   -5.0380 C   0  0  0  0  0  4           0  0  0
   -0.4342   -0.0039    3.6055 C   0  0  0  0  0  4           0  0  0
   -9.5063    1.3690    3.4175 C   0  0  0  0  0  4           0  0  0
    4.2274    0.0000   -2.4549 C   0  0  0  0  0  4           0  0  0
    4.3690   -2.4077   -2.7610 C   0  0  0  0  0  4           0  0  0
    4.7085   -0.9054   -4.6324 C   0  0  0  0  0  4           0  0  0
    4.7427   -3.4130   -5.0804 C   0  0  1  0  0  4           0  0  0
    3.4927    0.0000   -1.1154 C   0  0  0  0  0  4           0  0  0
    4.0773   -3.5780   -3.7060 C   0  0  0  0  0  4           0  0  0
    4.4135   -2.0230   -5.6361 C   0  0  0  0  0  4           0  0  0
  1 15  1  0     0  0
  1 16  1  0     0  0
  2  4  2  0     0  0
  2  5  2  0     0  0
  2 12  1  0     0  0
  2 17  1  0     0  0
  3 18  1  0     0  0
  6 19  1  0     0  0
  6 32  1  0     0  0
  7 20  1  0     0  0
  7 34  1  0     0  0
  8 33  1  0     0  0
  9 15  2  0     0  0
  9 24  1  0     0  0
 10 21  1  0     0  0
 10 22  2  0     0  0
 11 21  2  0     0  0
 11 23  1  0     0  0
 12 35  1  0     0  0
 13 15  1  0     0  0
 13 22  1  0     0  0
 14 36  1  0     0  0
 14 37  1  0     0  0
 14 38  1  0     0  0
 16 24  2  0     0  0
 16 35  1  0     0  0
 17 26  1  0     0  0
 17 27  2  0     0  0
 18 26  2  0     0  0
 18 28  1  0     0  0
 19 20  1  0     0  0
 19 29  2  0     0  0
 20 30  2  0     0  0
 22 25  1  0     0  0
 23 25  2  0     0  0
 23 29  1  0     0  0
 25 30  1  0     0  0
 27 31  1  0     0  0
 28 31  2  0     0  0
 32 40  1  0     0  0
 33 39  1  0     0  0
 36 40  1  0     0  0
 37 41  1  0     0  0
 38 42  1  0     0  0
 39 41  1  0     0  0
 39 42  1  0     0  0
M  END
> <standard_type>
pIC50

> <# Confs.>
25

> <canonical_smiles>
OCC1CCN(CCCOC2=CC(N=CN=C3NC4=NC=C(CNS(=O)(C5=CC=CC(F)=C5)=O)S4)=C3C=C2OC)CC1

> <standard_relation>
=

> <Publication_ID>
nan

> <predicted_activity_value>
7.795880017344075

> <actual_activity_value>
7.552841968657781

> <Compound>
12

> <standard_units>
nM

> hash
16551182519414113262

$$$$
11
XXILIB    08252103493D 0   0.00000     0.00000

 42 46  0     1  0            999 V2000
   -6.8888   -0.5644    3.1149 S   0  0  0  0  0  2           0  0  0
  -10.3045   -4.2070    4.4986 S   0  0  2  0  0  6           0  0  0
  -12.2884   -5.0680   -0.1014 F   0  0  0  0  0  1           0  0  0
  -11.5277   -3.4448    4.6599 O   0  0  0  0  0  2           0  0  0
   -9.8526   -5.1033    5.5459 O   0  0  0  0  0  2           0  0  0
    1.3663   -0.0000    0.0000 O   0  0  0  0  0  2           0  0  0
    0.2150   -0.0040    2.3369 O   0  0  0  0  0  2           0  0  0
    4.6360   -5.8315   -5.3810 O   0  0  0  0  0  2           0  0  0
   -6.8594   -1.2913    0.6484 N   0  0  0  0  0  3           0  0  0
   -4.9297   -0.0274   -1.0290 N   0  0  0  0  0  3           0  0  0
   -2.8681    0.0032   -2.2504 N   0  0  0  0  0  3           0  0  0
   -9.0346   -3.1531    4.0720 N   0  0  0  0  0  3           0  0  0
   -4.9574   -0.0282    1.3548 N   0  0  0  0  0  3           0  0  0
    3.9895   -1.1211   -3.3670 N   0  0  1  0  0  3           0  0  0
   -6.1549   -0.6302    1.5474 C   0  0  0  0  0  4           0  0  0
   -8.2126   -1.4866    2.5451 C   0  0  0  0  0  4           0  0  0
  -10.4578   -5.1582    3.0217 C   0  0  0  0  0  4           0  0  0
  -11.4613   -5.4816    0.8686 C   0  0  0  0  0  4           0  0  0
    0.0000    0.0000    0.0000 C   0  0  0  0  0  4           0  0  0
   -0.6183    0.0000    1.2539 C   0  0  0  0  0  4           0  0  0
   -4.2048   -0.0171   -2.1556 C   0  0  0  0  0  4           0  0  0
   -4.2418    0.0017    0.1400 C   0  0  0  0  0  4           0  0  0
   -2.1835    0.0057   -1.0994 C   0  0  0  0  0  4           0  0  0
   -8.0217   -1.7765    1.2115 C   0  0  0  0  0  4           0  0  0
   -2.8217    0.0002    0.1558 C   0  0  0  0  0  4           0  0  0
  -11.3281   -4.7186    2.0248 C   0  0  0  0  0  4           0  0  0
   -9.7400   -6.3462    2.8763 C   0  0  0  0  0  4           0  0  0
  -10.7503   -6.6668    0.7017 C   0  0  0  0  0  4           0  0  0
   -0.7915    0.0082   -1.1551 C   0  0  0  0  0  4           0  0  0
   -2.0168   -0.0093    1.3250 C   0  0  0  0  0  4           0  0  0
   -9.8892   -7.0983    1.7096 C   0  0  0  0  0  4           0  0  0
    1.9791    0.0000   -1.2891 C   0  0  0  0  0  4           0  0  0
    4.3754   -4.5608   -5.9639 C   0  0  0  0  0  4           0  0  0
   -0.4342   -0.0039    3.6055 C   0  0  0  0  0  4           0  0  0
   -9.3411   -1.8597    3.4353 C   0  0  0  0  0  4           0  0  0
    4.2274    0.0000   -2.4549 C   0  0  0  0  0  4           0  0  0
    4.7787   -0.9463   -4.5960 C   0  0  0  0  0  4           0  0  0
    4.3002   -2.4127   -2.7332 C   0  0  0  0  0  4           0  0  0
    4.7582   -3.4431   -5.0032 C   0  0  1  0  0  4           0  0  0
    3.4927    0.0000   -1.1154 C   0  0  0  0  0  4           0  0  0
    4.4877   -2.0579   -5.6058 C   0  0  0  0  0  4           0  0  0
    4.0059   -3.5823   -3.6761 C   0  0  0  0  0  4           0  0  0
  1 15  1  0     0  0
  1 16  1  0     0  0
  2  4  2  0     0  0
  2  5  2  0     0  0
  2 12  1  0     0  0
  2 17  1  0     0  0
  3 18  1  0     0  0
  6 19  1  0     0  0
  6 32  1  0     0  0
  7 20  1  0     0  0
  7 34  1  0     0  0
  8 33  1  0     0  0
  9 15  2  0     0  0
  9 24  1  0     0  0
 10 21  1  0     0  0
 10 22  2  0     0  0
 11 21  2  0     0  0
 11 23  1  0     0  0
 12 35  1  0     0  0
 13 15  1  0     0  0
 13 22  1  0     0  0
 14 36  1  0     0  0
 14 37  1  0     0  0
 14 38  1  0     0  0
 16 24  2  0     0  0
 16 35  1  0     0  0
 17 26  1  0     0  0
 17 27  2  0     0  0
 18 26  2  0     0  0
 18 28  1  0     0  0
 19 20  1  0     0  0
 19 29  2  0     0  0
 20 30  2  0     0  0
 22 25  1  0     0  0
 23 25  2  0     0  0
 23 29  1  0     0  0
 25 30  1  0     0  0
 27 31  1  0     0  0
 28 31  2  0     0  0
 32 40  1  0     0  0
 33 39  1  0     0  0
 36 40  1  0     0  0
 37 41  1  0     0  0
 38 42  1  0     0  0
 39 41  1  0     0  0
 39 42  1  0     0  0
M  END
> <standard_type>
pIC50

> <# Confs.>
25

> <canonical_smiles>
OCC1CCN(CCCOC2=CC(N=CN=C3NC4=NC=C(CNS(=O)(C5=CC=CC(F)=C5)=O)S4)=C3C=C2OC)CC1

> <standard_relation>
=

> <Publication_ID>
nan

> <predicted_activity_value>
7.795880017344075

> <actual_activity_value>
7.552841968657781

> <Compound>
12

> <standard_units>
nM

> hash
16551182519414113262

$$$$
11
XXILIB    08252103493D 0   0.00000     0.00000

 42 46  0     1  0            999 V2000
   -6.8888   -0.5644    3.1149 S   0  0  0  0  0  2           0  0  0
  -11.3554   -0.4966    4.7212 S   0  0  2  0  0  6           0  0  0
   -7.8003    0.8837    8.0817 F   0  0  0  0  0  1           0  0  0
  -11.4010   -1.6783    5.5607 O   0  0  0  0  0  2           0  0  0
  -12.5818    0.1436    4.2849 O   0  0  0  0  0  2           0  0  0
    1.3663   -0.0000    0.0000 O   0  0  0  0  0  2           0  0  0
    0.2150   -0.0040    2.3369 O   0  0  0  0  0  2           0  0  0
    6.8145   -3.4912   -6.3309 O   0  0  0  0  0  2           0  0  0
   -6.8594   -1.2913    0.6484 N   0  0  0  0  0  3           0  0  0
   -4.9297   -0.0274   -1.0290 N   0  0  0  0  0  3           0  0  0
   -2.8681    0.0032   -2.2504 N   0  0  0  0  0  3           0  0  0
  -10.3674   -0.8042    3.3666 N   0  0  0  0  0  3           0  0  0
   -4.9574   -0.0282    1.3548 N   0  0  0  0  0  3           0  0  0
    3.9895   -1.1211   -3.3670 N   0  0  1  0  0  3           0  0  0
   -6.1549   -0.6302    1.5474 C   0  0  0  0  0  4           0  0  0
   -8.2126   -1.4866    2.5451 C   0  0  0  0  0  4           0  0  0
  -10.3967    0.7208    5.5626 C   0  0  0  0  0  4           0  0  0
   -8.7138    1.2688    7.1799 C   0  0  0  0  0  4           0  0  0
    0.0000    0.0000    0.0000 C   0  0  0  0  0  4           0  0  0
   -0.6183    0.0000    1.2539 C   0  0  0  0  0  4           0  0  0
   -4.2048   -0.0171   -2.1556 C   0  0  0  0  0  4           0  0  0
   -4.2418    0.0017    0.1400 C   0  0  0  0  0  4           0  0  0
   -2.1835    0.0057   -1.0994 C   0  0  0  0  0  4           0  0  0
   -8.0217   -1.7765    1.2115 C   0  0  0  0  0  4           0  0  0
   -2.8217    0.0002    0.1558 C   0  0  0  0  0  4           0  0  0
   -9.4553    0.3047    6.5036 C   0  0  0  0  0  4           0  0  0
  -10.6065    2.0767    5.3073 C   0  0  0  0  0  4           0  0  0
   -8.9040    2.6261    6.9360 C   0  0  0  0  0  4           0  0  0
   -0.7915    0.0082   -1.1551 C   0  0  0  0  0  4           0  0  0
   -2.0168   -0.0093    1.3250 C   0  0  0  0  0  4           0  0  0
   -9.8537    3.0283    5.9979 C   0  0  0  0  0  4           0  0  0
    1.9791    0.0000   -1.2891 C   0  0  0  0  0  4           0  0  0
    6.2453   -3.6554   -5.0380 C   0  0  0  0  0  4           0  0  0
   -0.4342   -0.0039    3.6055 C   0  0  0  0  0  4           0  0  0
   -9.3411   -1.8597    3.4353 C   0  0  0  0  0  4           0  0  0
    4.2274    0.0000   -2.4549 C   0  0  0  0  0  4           0  0  0
    4.3690   -2.4077   -2.7610 C   0  0  0  0  0  4           0  0  0
    4.7085   -0.9054   -4.6324 C   0  0  0  0  0  4           0  0  0
    4.7427   -3.4130   -5.0804 C   0  0  1  0  0  4           0  0  0
    3.4927    0.0000   -1.1154 C   0  0  0  0  0  4           0  0  0
    4.0773   -3.5780   -3.7060 C   0  0  0  0  0  4           0  0  0
    4.4135   -2.0230   -5.6361 C   0  0  0  0  0  4           0  0  0
  1 15  1  0     0  0
  1 16  1  0     0  0
  2  4  2  0     0  0
  2  5  2  0     0  0
  2 12  1  0     0  0
  2 17  1  0     0  0
  3 18  1  0     0  0
  6 19  1  0     0  0
  6 32  1  0     0  0
  7 20  1  0     0  0
  7 34  1  0     0  0
  8 33  1  0     0  0
  9 15  2  0     0  0
  9 24  1  0     0  0
 10 21  1  0     0  0
 10 22  2  0     0  0
 11 21  2  0     0  0
 11 23  1  0     0  0
 12 35  1  0     0  0
 13 15  1  0     0  0
 13 22  1  0     0  0
 14 36  1  0     0  0
 14 37  1  0     0  0
 14 38  1  0     0  0
 16 24  2  0     0  0
 16 35  1  0     0  0
 17 26  1  0     0  0
 17 27  2  0     0  0
 18 26  2  0     0  0
 18 28  1  0     0  0
 19 20  1  0     0  0
 19 29  2  0     0  0
 20 30  2  0     0  0
 22 25  1  0     0  0
 23 25  2  0     0  0
 23 29  1  0     0  0
 25 30  1  0     0  0
 27 31  1  0     0  0
 28 31  2  0     0  0
 32 40  1  0     0  0
 33 39  1  0     0  0
 36 40  1  0     0  0
 37 41  1  0     0  0
 38 42  1  0     0  0
 39 41  1  0     0  0
 39 42  1  0     0  0
M  END
> <standard_type>
pIC50

> <# Confs.>
25

> <canonical_smiles>
OCC1CCN(CCCOC2=CC(N=CN=C3NC4=NC=C(CNS(=O)(C5=CC=CC(F)=C5)=O)S4)=C3C=C2OC)CC1

> <standard_relation>
=

> <Publication_ID>
nan

> <predicted_activity_value>
7.795880017344075

> <actual_activity_value>
7.552841968657781

> <Compound>
12

> <standard_units>
nM

> hash
16551182519414113262

$$$$
11
XXILIB    08252103493D 0   0.00000     0.00000

 42 46  0     1  0            999 V2000
   -6.9270    0.3445    3.1148 S   0  0  0  0  0  2           0  0  0
  -12.0887    0.4314    3.5617 S   0  0  2  0  0  6           0  0  0
  -13.7400   -1.1420   -0.9808 F   0  0  0  0  0  1           0  0  0
  -12.3173    1.6463    4.3201 O   0  0  0  0  0  2           0  0  0
  -12.6877   -0.8215    3.9812 O   0  0  0  0  0  2           0  0  0
    1.3663   -0.0000    0.0000 O   0  0  0  0  0  2           0  0  0
    0.2150   -0.0040    2.3369 O   0  0  0  0  0  2           0  0  0
    4.6360   -5.8315   -5.3810 O   0  0  0  0  0  2           0  0  0
   -6.9609    1.0655    0.6466 N   0  0  0  0  0  3           0  0  0
   -4.9297   -0.0274   -1.0290 N   0  0  0  0  0  3           0  0  0
   -2.8681    0.0032   -2.2504 N   0  0  0  0  0  3           0  0  0
  -10.4129    0.2095    3.3428 N   0  0  0  0  0  3           0  0  0
   -4.9574   -0.0282    1.3548 N   0  0  0  0  0  3           0  0  0
    3.9895   -1.1211   -3.3670 N   0  0  1  0  0  3           0  0  0
   -6.2012    0.4712    1.5473 C   0  0  0  0  0  4           0  0  0
   -8.3382    1.1192    2.5352 C   0  0  0  0  0  4           0  0  0
  -12.6041    0.7316    1.9024 C   0  0  0  0  0  4           0  0  0
  -13.3685   -0.1125   -0.2073 C   0  0  0  0  0  4           0  0  0
    0.0000    0.0000    0.0000 C   0  0  0  0  0  4           0  0  0
   -0.6183    0.0000    1.2539 C   0  0  0  0  0  4           0  0  0
   -4.2048   -0.0171   -2.1556 C   0  0  0  0  0  4           0  0  0
   -4.2418    0.0017    0.1400 C   0  0  0  0  0  4           0  0  0
   -2.1835    0.0057   -1.0994 C   0  0  0  0  0  4           0  0  0
   -8.1690    1.4311    1.2037 C   0  0  0  0  0  4           0  0  0
   -2.8217    0.0002    0.1558 C   0  0  0  0  0  4           0  0  0
  -12.9805   -0.3508    1.1077 C   0  0  0  0  0  4           0  0  0
  -12.6012    2.0308    1.3924 C   0  0  0  0  0  4           0  0  0
  -13.3777    1.1763   -0.7335 C   0  0  0  0  0  4           0  0  0
   -0.7915    0.0082   -1.1551 C   0  0  0  0  0  4           0  0  0
   -2.0168   -0.0093    1.3250 C   0  0  0  0  0  4           0  0  0
  -12.9919    2.2483    0.0699 C   0  0  0  0  0  4           0  0  0
    1.9791    0.0000   -1.2891 C   0  0  0  0  0  4           0  0  0
    4.3754   -4.5608   -5.9639 C   0  0  0  0  0  4           0  0  0
   -0.4342   -0.0039    3.6055 C   0  0  0  0  0  4           0  0  0
   -9.5063    1.3690    3.4175 C   0  0  0  0  0  4           0  0  0
    4.2274    0.0000   -2.4549 C   0  0  0  0  0  4           0  0  0
    4.7787   -0.9463   -4.5960 C   0  0  0  0  0  4           0  0  0
    4.3002   -2.4127   -2.7332 C   0  0  0  0  0  4           0  0  0
    4.7582   -3.4431   -5.0032 C   0  0  1  0  0  4           0  0  0
    3.4927    0.0000   -1.1154 C   0  0  0  0  0  4           0  0  0
    4.4877   -2.0579   -5.6058 C   0  0  0  0  0  4           0  0  0
    4.0059   -3.5823   -3.6761 C   0  0  0  0  0  4           0  0  0
  1 15  1  0     0  0
  1 16  1  0     0  0
  2  4  2  0     0  0
  2  5  2  0     0  0
  2 12  1  0     0  0
  2 17  1  0     0  0
  3 18  1  0     0  0
  6 19  1  0     0  0
  6 32  1  0     0  0
  7 20  1  0     0  0
  7 34  1  0     0  0
  8 33  1  0     0  0
  9 15  2  0     0  0
  9 24  1  0     0  0
 10 21  1  0     0  0
 10 22  2  0     0  0
 11 21  2  0     0  0
 11 23  1  0     0  0
 12 35  1  0     0  0
 13 15  1  0     0  0
 13 22  1  0     0  0
 14 36  1  0     0  0
 14 37  1  0     0  0
 14 38  1  0     0  0
 16 24  2  0     0  0
 16 35  1  0     0  0
 17 26  1  0     0  0
 17 27  2  0     0  0
 18 26  2  0     0  0
 18 28  1  0     0  0
 19 20  1  0     0  0
 19 29  2  0     0  0
 20 30  2  0     0  0
 22 25  1  0     0  0
 23 25  2  0     0  0
 23 29  1  0     0  0
 25 30  1  0     0  0
 27 31  1  0     0  0
 28 31  2  0     0  0
 32 40  1  0     0  0
 33 39  1  0     0  0
 36 40  1  0     0  0
 37 41  1  0     0  0
 38 42  1  0     0  0
 39 41  1  0     0  0
 39 42  1  0     0  0
M  END
> <standard_type>
pIC50

> <# Confs.>
25

> <canonical_smiles>
OCC1CCN(CCCOC2=CC(N=CN=C3NC4=NC=C(CNS(=O)(C5=CC=CC(F)=C5)=O)S4)=C3C=C2OC)CC1

> <standard_relation>
=

> <Publication_ID>
nan

> <predicted_activity_value>
7.795880017344075

> <actual_activity_value>
7.552841968657781

> <Compound>
12

> <standard_units>
nM

> hash
16551182519414113262

$$$$
11
XXILIB    08252103493D 0   0.00000     0.00000

 42 46  0     1  0            999 V2000
   -6.9270    0.3445    3.1148 S   0  0  0  0  0  2           0  0  0
  -12.0887    0.4314    3.5617 S   0  0  2  0  0  6           0  0  0
  -13.0621    3.5336   -0.3454 F   0  0  0  0  0  1           0  0  0
  -12.3173    1.6463    4.3201 O   0  0  0  0  0  2           0  0  0
  -12.6877   -0.8215    3.9812 O   0  0  0  0  0  2           0  0  0
    1.3663    0.0000    0.0000 O   0  0  0  0  0  2           0  0  0
    0.2150   -0.0040    2.3369 O   0  0  0  0  0  2           0  0  0
    5.0174    4.4515   -7.1767 O   0  0  0  0  0  2           0  0  0
   -6.9609    1.0655    0.6466 N   0  0  0  0  0  3           0  0  0
   -4.9297   -0.0274   -1.0290 N   0  0  0  0  0  3           0  0  0
   -2.8681    0.0032   -2.2504 N   0  0  0  0  0  3           0  0  0
  -10.4129    0.2095    3.3428 N   0  0  0  0  0  3           0  0  0
   -4.9574   -0.0282    1.3548 N   0  0  0  0  0  3           0  0  0
    3.9895    1.1211   -3.3670 N   0  0  1  0  0  3           0  0  0
   -6.2012    0.4712    1.5473 C   0  0  0  0  0  4           0  0  0
   -8.3382    1.1192    2.5352 C   0  0  0  0  0  4           0  0  0
  -12.6041    0.7316    1.9024 C   0  0  0  0  0  4           0  0  0
  -13.0470    2.2790    0.1255 C   0  0  0  0  0  4           0  0  0
    0.0000    0.0000    0.0000 C   0  0  0  0  0  4           0  0  0
   -0.6183    0.0000    1.2539 C   0  0  0  0  0  4           0  0  0
   -4.2048   -0.0171   -2.1556 C   0  0  0  0  0  4           0  0  0
   -4.2418    0.0017    0.1400 C   0  0  0  0  0  4           0  0  0
   -2.1835    0.0057   -1.0994 C   0  0  0  0  0  4           0  0  0
   -8.1690    1.4311    1.2037 C   0  0  0  0  0  4           0  0  0
   -2.8217    0.0002    0.1558 C   0  0  0  0  0  4           0  0  0
  -12.6214    2.0434    1.4294 C   0  0  0  0  0  4           0  0  0
  -13.0163   -0.3291    1.0944 C   0  0  0  0  0  4           0  0  0
  -13.4571    1.2344   -0.6984 C   0  0  0  0  0  4           0  0  0
   -0.7915    0.0082   -1.1551 C   0  0  0  0  0  4           0  0  0
   -2.0168   -0.0093    1.3250 C   0  0  0  0  0  4           0  0  0
  -13.4417   -0.0713   -0.2101 C   0  0  0  0  0  4           0  0  0
    1.9791    0.0000   -1.2891 C   0  0  0  0  0  4           0  0  0
    4.3662    4.5941   -5.9205 C   0  0  0  0  0  4           0  0  0
   -0.4342   -0.0039    3.6055 C   0  0  0  0  0  4           0  0  0
   -9.5063    1.3690    3.4175 C   0  0  0  0  0  4           0  0  0
    4.2274    0.0000   -2.4549 C   0  0  0  0  0  4           0  0  0
    4.3812    2.3848   -2.7240 C   0  0  0  0  0  4           0  0  0
    4.7054    0.9464   -4.6411 C   0  0  0  0  0  4           0  0  0
    4.7543    3.4572   -4.9849 C   0  0  1  0  0  4           0  0  0
    3.4927   -0.0000   -1.1154 C   0  0  0  0  0  4           0  0  0
    4.0658    3.5846   -3.6192 C   0  0  0  0  0  4           0  0  0
    4.4159    2.0988   -5.6066 C   0  0  0  0  0  4           0  0  0
  1 15  1  0     0  0
  1 16  1  0     0  0
  2  4  2  0     0  0
  2  5  2  0     0  0
  2 12  1  0     0  0
  2 17  1  0     0  0
  3 18  1  0     0  0
  6 19  1  0     0  0
  6 32  1  0     0  0
  7 20  1  0     0  0
  7 34  1  0     0  0
  8 33  1  0     0  0
  9 15  2  0     0  0
  9 24  1  0     0  0
 10 21  1  0     0  0
 10 22  2  0     0  0
 11 21  2  0     0  0
 11 23  1  0     0  0
 12 35  1  0     0  0
 13 15  1  0     0  0
 13 22  1  0     0  0
 14 36  1  0     0  0
 14 37  1  0     0  0
 14 38  1  0     0  0
 16 24  2  0     0  0
 16 35  1  0     0  0
 17 26  1  0     0  0
 17 27  2  0     0  0
 18 26  2  0     0  0
 18 28  1  0     0  0
 19 20  1  0     0  0
 19 29  2  0     0  0
 20 30  2  0     0  0
 22 25  1  0     0  0
 23 25  2  0     0  0
 23 29  1  0     0  0
 25 30  1  0     0  0
 27 31  1  0     0  0
 28 31  2  0     0  0
 32 40  1  0     0  0
 33 39  1  0     0  0
 36 40  1  0     0  0
 37 41  1  0     0  0
 38 42  1  0     0  0
 39 41  1  0     0  0
 39 42  1  0     0  0
M  END
> <standard_type>
pIC50

> <# Confs.>
25

> <canonical_smiles>
OCC1CCN(CCCOC2=CC(N=CN=C3NC4=NC=C(CNS(=O)(C5=CC=CC(F)=C5)=O)S4)=C3C=C2OC)CC1

> <standard_relation>
=

> <Publication_ID>
nan

> <predicted_activity_value>
7.795880017344075

> <actual_activity_value>
7.552841968657781

> <Compound>
12

> <standard_units>
nM

> hash
16551182519414113262

$$$$
11
XXILIB    08252103493D 0   0.00000     0.00000

 42 46  0     1  0            999 V2000
   -6.9270    0.3445    3.1148 S   0  0  0  0  0  2           0  0  0
  -10.0060    2.9659    5.6013 S   0  0  2  0  0  6           0  0  0
   -5.7359    3.9792    8.1657 F   0  0  0  0  0  1           0  0  0
  -11.0907    2.0319    5.8349 O   0  0  0  0  0  2           0  0  0
  -10.2087    4.3903    5.7874 O   0  0  0  0  0  2           0  0  0
    1.3663    0.0000    0.0000 O   0  0  0  0  0  2           0  0  0
    0.2150   -0.0040    2.3369 O   0  0  0  0  0  2           0  0  0
    5.0174    4.4515   -7.1767 O   0  0  0  0  0  2           0  0  0
   -6.9609    1.0655    0.6466 N   0  0  0  0  0  3           0  0  0
   -4.9297   -0.0274   -1.0290 N   0  0  0  0  0  3           0  0  0
   -2.8681    0.0032   -2.2504 N   0  0  0  0  0  3           0  0  0
   -9.3448    2.6880    4.0550 N   0  0  0  0  0  3           0  0  0
   -4.9574   -0.0282    1.3548 N   0  0  0  0  0  3           0  0  0
    3.9895    1.1211   -3.3670 N   0  0  1  0  0  3           0  0  0
   -6.2012    0.4712    1.5473 C   0  0  0  0  0  4           0  0  0
   -8.3382    1.1192    2.5352 C   0  0  0  0  0  4           0  0  0
   -8.6569    2.4874    6.6310 C   0  0  0  0  0  4           0  0  0
   -6.6431    3.0643    7.7969 C   0  0  0  0  0  4           0  0  0
    0.0000    0.0000    0.0000 C   0  0  0  0  0  4           0  0  0
   -0.6183    0.0000    1.2539 C   0  0  0  0  0  4           0  0  0
   -4.2048   -0.0171   -2.1556 C   0  0  0  0  0  4           0  0  0
   -4.2418    0.0017    0.1400 C   0  0  0  0  0  4           0  0  0
   -2.1835    0.0057   -1.0994 C   0  0  0  0  0  4           0  0  0
   -8.1690    1.4311    1.2037 C   0  0  0  0  0  4           0  0  0
   -2.8217    0.0002    0.1558 C   0  0  0  0  0  4           0  0  0
   -7.7171    3.4492    7.0001 C   0  0  0  0  0  4           0  0  0
   -8.5234    1.1591    7.0380 C   0  0  0  0  0  4           0  0  0
   -6.4946    1.7456    8.2180 C   0  0  0  0  0  4           0  0  0
   -0.7915    0.0082   -1.1551 C   0  0  0  0  0  4           0  0  0
   -2.0168   -0.0093    1.3250 C   0  0  0  0  0  4           0  0  0
   -7.4377    0.7929    7.8354 C   0  0  0  0  0  4           0  0  0
    1.9791    0.0000   -1.2891 C   0  0  0  0  0  4           0  0  0
    4.3662    4.5941   -5.9205 C   0  0  0  0  0  4           0  0  0
   -0.4342   -0.0039    3.6055 C   0  0  0  0  0  4           0  0  0
   -9.5063    1.3690    3.4175 C   0  0  0  0  0  4           0  0  0
    4.2274    0.0000   -2.4549 C   0  0  0  0  0  4           0  0  0
    4.3812    2.3848   -2.7240 C   0  0  0  0  0  4           0  0  0
    4.7054    0.9464   -4.6411 C   0  0  0  0  0  4           0  0  0
    4.7543    3.4572   -4.9849 C   0  0  1  0  0  4           0  0  0
    3.4927   -0.0000   -1.1154 C   0  0  0  0  0  4           0  0  0
    4.0658    3.5846   -3.6192 C   0  0  0  0  0  4           0  0  0
    4.4159    2.0988   -5.6066 C   0  0  0  0  0  4           0  0  0
  1 15  1  0     0  0
  1 16  1  0     0  0
  2  4  2  0     0  0
  2  5  2  0     0  0
  2 12  1  0     0  0
  2 17  1  0     0  0
  3 18  1  0     0  0
  6 19  1  0     0  0
  6 32  1  0     0  0
  7 20  1  0     0  0
  7 34  1  0     0  0
  8 33  1  0     0  0
  9 15  2  0     0  0
  9 24  1  0     0  0
 10 21  1  0     0  0
 10 22  2  0     0  0
 11 21  2  0     0  0
 11 23  1  0     0  0
 12 35  1  0     0  0
 13 15  1  0     0  0
 13 22  1  0     0  0
 14 36  1  0     0  0
 14 37  1  0     0  0
 14 38  1  0     0  0
 16 24  2  0     0  0
 16 35  1  0     0  0
 17 26  1  0     0  0
 17 27  2  0     0  0
 18 26  2  0     0  0
 18 28  1  0     0  0
 19 20  1  0     0  0
 19 29  2  0     0  0
 20 30  2  0     0  0
 22 25  1  0     0  0
 23 25  2  0     0  0
 23 29  1  0     0  0
 25 30  1  0     0  0
 27 31  1  0     0  0
 28 31  2  0     0  0
 32 40  1  0     0  0
 33 39  1  0     0  0
 36 40  1  0     0  0
 37 41  1  0     0  0
 38 42  1  0     0  0
 39 41  1  0     0  0
 39 42  1  0     0  0
M  END
> <standard_type>
pIC50

> <# Confs.>
25

> <canonical_smiles>
OCC1CCN(CCCOC2=CC(N=CN=C3NC4=NC=C(CNS(=O)(C5=CC=CC(F)=C5)=O)S4)=C3C=C2OC)CC1

> <standard_relation>
=

> <Publication_ID>
nan

> <predicted_activity_value>
7.795880017344075

> <actual_activity_value>
7.552841968657781

> <Compound>
12

> <standard_units>
nM

> hash
16551182519414113262

$$$$
11
XXILIB    08252103493D 0   0.00000     0.00000

 42 46  0     1  0            999 V2000
   -6.8888   -0.5644    3.1149 S   0  0  0  0  0  2           0  0  0
  -11.3554   -0.4966    4.7212 S   0  0  2  0  0  6           0  0  0
  -10.0286    4.3223    5.6455 F   0  0  0  0  0  1           0  0  0
  -11.4010   -1.6783    5.5607 O   0  0  0  0  0  2           0  0  0
  -12.5818    0.1436    4.2849 O   0  0  0  0  0  2           0  0  0
    1.3663   -0.0000    0.0000 O   0  0  0  0  0  2           0  0  0
    0.2150   -0.0040    2.3369 O   0  0  0  0  0  2           0  0  0
    4.6360   -5.8315   -5.3810 O   0  0  0  0  0  2           0  0  0
   -6.8594   -1.2913    0.6484 N   0  0  0  0  0  3           0  0  0
   -4.9297   -0.0274   -1.0290 N   0  0  0  0  0  3           0  0  0
   -2.8681    0.0032   -2.2504 N   0  0  0  0  0  3           0  0  0
  -10.3674   -0.8042    3.3666 N   0  0  0  0  0  3           0  0  0
   -4.9574   -0.0282    1.3548 N   0  0  0  0  0  3           0  0  0
    3.9895   -1.1211   -3.3670 N   0  0  1  0  0  3           0  0  0
   -6.1549   -0.6302    1.5474 C   0  0  0  0  0  4           0  0  0
   -8.2126   -1.4866    2.5451 C   0  0  0  0  0  4           0  0  0
  -10.3967    0.7208    5.5626 C   0  0  0  0  0  4           0  0  0
   -9.8340    3.0243    5.9162 C   0  0  0  0  0  4           0  0  0
    0.0000    0.0000    0.0000 C   0  0  0  0  0  4           0  0  0
   -0.6183    0.0000    1.2539 C   0  0  0  0  0  4           0  0  0
   -4.2048   -0.0171   -2.1556 C   0  0  0  0  0  4           0  0  0
   -4.2418    0.0017    0.1400 C   0  0  0  0  0  4           0  0  0
   -2.1835    0.0057   -1.0994 C   0  0  0  0  0  4           0  0  0
   -8.0217   -1.7765    1.2115 C   0  0  0  0  0  4           0  0  0
   -2.8217    0.0002    0.1558 C   0  0  0  0  0  4           0  0  0
  -10.6056    2.0670    5.2645 C   0  0  0  0  0  4           0  0  0
   -9.4254    0.3318    6.4863 C   0  0  0  0  0  4           0  0  0
   -8.8638    2.6574    6.8448 C   0  0  0  0  0  4           0  0  0
   -0.7915    0.0082   -1.1551 C   0  0  0  0  0  4           0  0  0
   -2.0168   -0.0093    1.3250 C   0  0  0  0  0  4           0  0  0
   -8.6604    1.3076    7.1278 C   0  0  0  0  0  4           0  0  0
    1.9791    0.0000   -1.2891 C   0  0  0  0  0  4           0  0  0
    4.3754   -4.5608   -5.9639 C   0  0  0  0  0  4           0  0  0
   -0.4342   -0.0039    3.6055 C   0  0  0  0  0  4           0  0  0
   -9.3411   -1.8597    3.4353 C   0  0  0  0  0  4           0  0  0
    4.2274    0.0000   -2.4549 C   0  0  0  0  0  4           0  0  0
    4.7787   -0.9463   -4.5960 C   0  0  0  0  0  4           0  0  0
    4.3002   -2.4127   -2.7332 C   0  0  0  0  0  4           0  0  0
    4.7582   -3.4431   -5.0032 C   0  0  1  0  0  4           0  0  0
    3.4927    0.0000   -1.1154 C   0  0  0  0  0  4           0  0  0
    4.4877   -2.0579   -5.6058 C   0  0  0  0  0  4           0  0  0
    4.0059   -3.5823   -3.6761 C   0  0  0  0  0  4           0  0  0
  1 15  1  0     0  0
  1 16  1  0     0  0
  2  4  2  0     0  0
  2  5  2  0     0  0
  2 12  1  0     0  0
  2 17  1  0     0  0
  3 18  1  0     0  0
  6 19  1  0     0  0
  6 32  1  0     0  0
  7 20  1  0     0  0
  7 34  1  0     0  0
  8 33  1  0     0  0
  9 15  2  0     0  0
  9 24  1  0     0  0
 10 21  1  0     0  0
 10 22  2  0     0  0
 11 21  2  0     0  0
 11 23  1  0     0  0
 12 35  1  0     0  0
 13 15  1  0     0  0
 13 22  1  0     0  0
 14 36  1  0     0  0
 14 37  1  0     0  0
 14 38  1  0     0  0
 16 24  2  0     0  0
 16 35  1  0     0  0
 17 26  1  0     0  0
 17 27  2  0     0  0
 18 26  2  0     0  0
 18 28  1  0     0  0
 19 20  1  0     0  0
 19 29  2  0     0  0
 20 30  2  0     0  0
 22 25  1  0     0  0
 23 25  2  0     0  0
 23 29  1  0     0  0
 25 30  1  0     0  0
 27 31  1  0     0  0
 28 31  2  0     0  0
 32 40  1  0     0  0
 33 39  1  0     0  0
 36 40  1  0     0  0
 37 41  1  0     0  0
 38 42  1  0     0  0
 39 41  1  0     0  0
 39 42  1  0     0  0
M  END
> <standard_type>
pIC50

> <# Confs.>
25

> <canonical_smiles>
OCC1CCN(CCCOC2=CC(N=CN=C3NC4=NC=C(CNS(=O)(C5=CC=CC(F)=C5)=O)S4)=C3C=C2OC)CC1

> <standard_relation>
=

> <Publication_ID>
nan

> <predicted_activity_value>
7.795880017344075

> <actual_activity_value>
7.552841968657781

> <Compound>
12

> <standard_units>
nM

> hash
16551182519414113262

$$$$
11
XXILIB    08252103493D 0   0.00000     0.00000

 42 46  0     1  0            999 V2000
   -6.8888   -0.5644    3.1149 S   0  0  0  0  0  2           0  0  0
  -10.3045   -4.2070    4.4986 S   0  0  2  0  0  6           0  0  0
   -9.1012   -8.1896    1.5783 F   0  0  0  0  0  1           0  0  0
  -11.5277   -3.4448    4.6599 O   0  0  0  0  0  2           0  0  0
   -9.8526   -5.1033    5.5459 O   0  0  0  0  0  2           0  0  0
    1.3663   -0.0000    0.0000 O   0  0  0  0  0  2           0  0  0
    0.2150   -0.0040    2.3369 O   0  0  0  0  0  2           0  0  0
    4.6360   -5.8315   -5.3810 O   0  0  0  0  0  2           0  0  0
   -6.8594   -1.2913    0.6484 N   0  0  0  0  0  3           0  0  0
   -4.9297   -0.0274   -1.0290 N   0  0  0  0  0  3           0  0  0
   -2.8681    0.0032   -2.2504 N   0  0  0  0  0  3           0  0  0
   -9.0346   -3.1531    4.0720 N   0  0  0  0  0  3           0  0  0
   -4.9574   -0.0282    1.3548 N   0  0  0  0  0  3           0  0  0
    3.9895   -1.1211   -3.3670 N   0  0  1  0  0  3           0  0  0
   -6.1549   -0.6302    1.5474 C   0  0  0  0  0  4           0  0  0
   -8.2126   -1.4866    2.5451 C   0  0  0  0  0  4           0  0  0
  -10.4578   -5.1582    3.0217 C   0  0  0  0  0  4           0  0  0
   -9.8133   -7.0627    1.7158 C   0  0  0  0  0  4           0  0  0
    0.0000    0.0000    0.0000 C   0  0  0  0  0  4           0  0  0
   -0.6183    0.0000    1.2539 C   0  0  0  0  0  4           0  0  0
   -4.2048   -0.0171   -2.1556 C   0  0  0  0  0  4           0  0  0
   -4.2418    0.0017    0.1400 C   0  0  0  0  0  4           0  0  0
   -2.1835    0.0057   -1.0994 C   0  0  0  0  0  4           0  0  0
   -8.0217   -1.7765    1.2115 C   0  0  0  0  0  4           0  0  0
   -2.8217    0.0002    0.1558 C   0  0  0  0  0  4           0  0  0
   -9.7045   -6.3245    2.8905 C   0  0  0  0  0  4           0  0  0
  -11.2973   -4.7257    1.9942 C   0  0  0  0  0  4           0  0  0
  -10.6490   -6.6514    0.6812 C   0  0  0  0  0  4           0  0  0
   -0.7915    0.0082   -1.1551 C   0  0  0  0  0  4           0  0  0
   -2.0168   -0.0093    1.3250 C   0  0  0  0  0  4           0  0  0
  -11.3908   -5.4795    0.8229 C   0  0  0  0  0  4           0  0  0
    1.9791    0.0000   -1.2891 C   0  0  0  0  0  4           0  0  0
    4.3754   -4.5608   -5.9639 C   0  0  0  0  0  4           0  0  0
   -0.4342   -0.0039    3.6055 C   0  0  0  0  0  4           0  0  0
   -9.3411   -1.8597    3.4353 C   0  0  0  0  0  4           0  0  0
    4.2274    0.0000   -2.4549 C   0  0  0  0  0  4           0  0  0
    4.7787   -0.9463   -4.5960 C   0  0  0  0  0  4           0  0  0
    4.3002   -2.4127   -2.7332 C   0  0  0  0  0  4           0  0  0
    4.7582   -3.4431   -5.0032 C   0  0  1  0  0  4           0  0  0
    3.4927    0.0000   -1.1154 C   0  0  0  0  0  4           0  0  0
    4.4877   -2.0579   -5.6058 C   0  0  0  0  0  4           0  0  0
    4.0059   -3.5823   -3.6761 C   0  0  0  0  0  4           0  0  0
  1 15  1  0     0  0
  1 16  1  0     0  0
  2  4  2  0     0  0
  2  5  2  0     0  0
  2 12  1  0     0  0
  2 17  1  0     0  0
  3 18  1  0     0  0
  6 19  1  0     0  0
  6 32  1  0     0  0
  7 20  1  0     0  0
  7 34  1  0     0  0
  8 33  1  0     0  0
  9 15  2  0     0  0
  9 24  1  0     0  0
 10 21  1  0     0  0
 10 22  2  0     0  0
 11 21  2  0     0  0
 11 23  1  0     0  0
 12 35  1  0     0  0
 13 15  1  0     0  0
 13 22  1  0     0  0
 14 36  1  0     0  0
 14 37  1  0     0  0
 14 38  1  0     0  0
 16 24  2  0     0  0
 16 35  1  0     0  0
 17 26  1  0     0  0
 17 27  2  0     0  0
 18 26  2  0     0  0
 18 28  1  0     0  0
 19 20  1  0     0  0
 19 29  2  0     0  0
 20 30  2  0     0  0
 22 25  1  0     0  0
 23 25  2  0     0  0
 23 29  1  0     0  0
 25 30  1  0     0  0
 27 31  1  0     0  0
 28 31  2  0     0  0
 32 40  1  0     0  0
 33 39  1  0     0  0
 36 40  1  0     0  0
 37 41  1  0     0  0
 38 42  1  0     0  0
 39 41  1  0     0  0
 39 42  1  0     0  0
M  END
> <standard_type>
pIC50

> <# Confs.>
25

> <canonical_smiles>
OCC1CCN(CCCOC2=CC(N=CN=C3NC4=NC=C(CNS(=O)(C5=CC=CC(F)=C5)=O)S4)=C3C=C2OC)CC1

> <standard_relation>
=

> <Publication_ID>
nan

> <predicted_activity_value>
7.795880017344075

> <actual_activity_value>
7.552841968657781

> <Compound>
12

> <standard_units>
nM

> hash
16551182519414113262

$$$$
11
XXILIB    08252103493D 0   0.00000     0.00000

 42 46  0     1  0            999 V2000
   -6.9270    0.3445    3.1148 S   0  0  0  0  0  2           0  0  0
  -11.8533    0.2028    4.2542 S   0  0  2  0  0  6           0  0  0
  -14.1765    4.2397    2.2187 F   0  0  0  0  0  1           0  0  0
  -11.7134    1.1058    5.3804 O   0  0  0  0  0  2           0  0  0
  -12.2852   -1.1670    4.4587 O   0  0  0  0  0  2           0  0  0
    1.3663   -0.0000    0.0000 O   0  0  0  0  0  2           0  0  0
    0.2150   -0.0040    2.3369 O   0  0  0  0  0  2           0  0  0
    4.6360   -5.8315   -5.3810 O   0  0  0  0  0  2           0  0  0
   -6.9609    1.0655    0.6466 N   0  0  0  0  0  3           0  0  0
   -4.9297   -0.0274   -1.0290 N   0  0  0  0  0  3           0  0  0
   -2.8681    0.0032   -2.2504 N   0  0  0  0  0  3           0  0  0
  -10.4129    0.2095    3.3428 N   0  0  0  0  0  3           0  0  0
   -4.9574   -0.0282    1.3548 N   0  0  0  0  0  3           0  0  0
    3.9895   -1.1211   -3.3670 N   0  0  1  0  0  3           0  0  0
   -6.2012    0.4712    1.5473 C   0  0  0  0  0  4           0  0  0
   -8.3382    1.1192    2.5352 C   0  0  0  0  0  4           0  0  0
  -12.9737    0.9427    3.1111 C   0  0  0  0  0  4           0  0  0
  -14.0250    2.9082    2.2283 C   0  0  0  0  0  4           0  0  0
    0.0000    0.0000    0.0000 C   0  0  0  0  0  4           0  0  0
   -0.6183    0.0000    1.2539 C   0  0  0  0  0  4           0  0  0
   -4.2048   -0.0171   -2.1556 C   0  0  0  0  0  4           0  0  0
   -4.2418    0.0017    0.1400 C   0  0  0  0  0  4           0  0  0
   -2.1835    0.0057   -1.0994 C   0  0  0  0  0  4           0  0  0
   -8.1690    1.4311    1.2037 C   0  0  0  0  0  4           0  0  0
   -2.8217    0.0002    0.1558 C   0  0  0  0  0  4           0  0  0
  -13.1258    2.3289    3.1185 C   0  0  0  0  0  4           0  0  0
  -13.7147    0.1432    2.2396 C   0  0  0  0  0  4           0  0  0
  -14.7697    2.1289    1.3472 C   0  0  0  0  0  4           0  0  0
   -0.7915    0.0082   -1.1551 C   0  0  0  0  0  4           0  0  0
   -2.0168   -0.0093    1.3250 C   0  0  0  0  0  4           0  0  0
  -14.6130    0.7437    1.3557 C   0  0  0  0  0  4           0  0  0
    1.9791    0.0000   -1.2891 C   0  0  0  0  0  4           0  0  0
    4.3754   -4.5608   -5.9639 C   0  0  0  0  0  4           0  0  0
   -0.4342   -0.0039    3.6055 C   0  0  0  0  0  4           0  0  0
   -9.5063    1.3690    3.4175 C   0  0  0  0  0  4           0  0  0
    4.2274    0.0000   -2.4549 C   0  0  0  0  0  4           0  0  0
    4.7787   -0.9463   -4.5960 C   0  0  0  0  0  4           0  0  0
    4.3002   -2.4127   -2.7332 C   0  0  0  0  0  4           0  0  0
    4.7582   -3.4431   -5.0032 C   0  0  1  0  0  4           0  0  0
    3.4927    0.0000   -1.1154 C   0  0  0  0  0  4           0  0  0
    4.4877   -2.0579   -5.6058 C   0  0  0  0  0  4           0  0  0
    4.0059   -3.5823   -3.6761 C   0  0  0  0  0  4           0  0  0
  1 15  1  0     0  0
  1 16  1  0     0  0
  2  4  2  0     0  0
  2  5  2  0     0  0
  2 12  1  0     0  0
  2 17  1  0     0  0
  3 18  1  0     0  0
  6 19  1  0     0  0
  6 32  1  0     0  0
  7 20  1  0     0  0
  7 34  1  0     0  0
  8 33  1  0     0  0
  9 15  2  0     0  0
  9 24  1  0     0  0
 10 21  1  0     0  0
 10 22  2  0     0  0
 11 21  2  0     0  0
 11 23  1  0     0  0
 12 35  1  0     0  0
 13 15  1  0     0  0
 13 22  1  0     0  0
 14 36  1  0     0  0
 14 37  1  0     0  0
 14 38  1  0     0  0
 16 24  2  0     0  0
 16 35  1  0     0  0
 17 26  1  0     0  0
 17 27  2  0     0  0
 18 26  2  0     0  0
 18 28  1  0     0  0
 19 20  1  0     0  0
 19 29  2  0     0  0
 20 30  2  0     0  0
 22 25  1  0     0  0
 23 25  2  0     0  0
 23 29  1  0     0  0
 25 30  1  0     0  0
 27 31  1  0     0  0
 28 31  2  0     0  0
 32 40  1  0     0  0
 33 39  1  0     0  0
 36 40  1  0     0  0
 37 41  1  0     0  0
 38 42  1  0     0  0
 39 41  1  0     0  0
 39 42  1  0     0  0
M  END
> <standard_type>
pIC50

> <# Confs.>
25

> <canonical_smiles>
OCC1CCN(CCCOC2=CC(N=CN=C3NC4=NC=C(CNS(=O)(C5=CC=CC(F)=C5)=O)S4)=C3C=C2OC)CC1

> <standard_relation>
=

> <Publication_ID>
nan

> <predicted_activity_value>
7.795880017344075

> <actual_activity_value>
7.552841968657781

> <Compound>
12

> <standard_units>
nM

> hash
16551182519414113262

$$$$
11
XXILIB    08252103493D 0   0.00000     0.00000

 42 46  0     1  0            999 V2000
   -6.9270    0.3445    3.1148 S   0  0  0  0  0  2           0  0  0
  -10.0060    2.9659    5.6013 S   0  0  2  0  0  6           0  0  0
   -7.4063   -0.4841    8.2801 F   0  0  0  0  0  1           0  0  0
  -11.0907    2.0319    5.8349 O   0  0  0  0  0  2           0  0  0
  -10.2087    4.3903    5.7874 O   0  0  0  0  0  2           0  0  0
    1.3663    0.0000   -0.0000 O   0  0  0  0  0  2           0  0  0
    0.2150   -0.0040    2.3369 O   0  0  0  0  0  2           0  0  0
    1.9249   -7.9869   -3.0904 O   0  0  0  0  0  2           0  0  0
   -6.9609    1.0655    0.6466 N   0  0  0  0  0  3           0  0  0
   -4.9297   -0.0274   -1.0290 N   0  0  0  0  0  3           0  0  0
   -2.8681    0.0032   -2.2504 N   0  0  0  0  0  3           0  0  0
   -9.3448    2.6880    4.0550 N   0  0  0  0  0  3           0  0  0
   -4.9574   -0.0282    1.3548 N   0  0  0  0  0  3           0  0  0
    3.3715   -3.0712   -2.4540 N   0  0  1  0  0  3           0  0  0
   -6.2012    0.4712    1.5473 C   0  0  0  0  0  4           0  0  0
   -8.3382    1.1192    2.5352 C   0  0  0  0  0  4           0  0  0
   -8.6569    2.4874    6.6310 C   0  0  0  0  0  4           0  0  0
   -7.5108    0.7896    7.8767 C   0  0  0  0  0  4           0  0  0
    0.0000    0.0000    0.0000 C   0  0  0  0  0  4           0  0  0
   -0.6183    0.0000    1.2539 C   0  0  0  0  0  4           0  0  0
   -4.2048   -0.0171   -2.1556 C   0  0  0  0  0  4           0  0  0
   -4.2418    0.0017    0.1400 C   0  0  0  0  0  4           0  0  0
   -2.1835    0.0057   -1.0994 C   0  0  0  0  0  4           0  0  0
   -8.1690    1.4311    1.2037 C   0  0  0  0  0  4           0  0  0
   -2.8217    0.0002    0.1558 C   0  0  0  0  0  4           0  0  0
   -8.5661    1.1599    7.0485 C   0  0  0  0  0  4           0  0  0
   -7.7189    3.4356    7.0418 C   0  0  0  0  0  4           0  0  0
   -6.5617    1.7189    8.2934 C   0  0  0  0  0  4           0  0  0
   -0.7915    0.0082   -1.1551 C   0  0  0  0  0  4           0  0  0
   -2.0168   -0.0093    1.3250 C   0  0  0  0  0  4           0  0  0
   -6.6688    3.0442    7.8744 C   0  0  0  0  0  4           0  0  0
    1.9791   -0.6445   -1.1164 C   0  0  0  0  0  4           0  0  0
    2.2969   -6.9646   -4.0065 C   0  0  0  0  0  4           0  0  0
   -0.4342   -0.0039    3.6055 C   0  0  0  0  0  4           0  0  0
   -9.5063    1.3690    3.4175 C   0  0  0  0  0  4           0  0  0
    4.0423   -1.9340   -1.8197 C   0  0  0  0  0  4           0  0  0
    4.2173   -3.6212   -3.5245 C   0  0  0  0  0  4           0  0  0
    3.0320   -4.1167   -1.4753 C   0  0  0  0  0  4           0  0  0
    3.0926   -5.8762   -3.2989 C   0  0  1  0  0  4           0  0  0
    3.3182   -1.2234   -0.6774 C   0  0  0  0  0  4           0  0  0
    3.5086   -4.7576   -4.2637 C   0  0  0  0  0  4           0  0  0
    2.2907   -5.2813   -2.1372 C   0  0  0  0  0  4           0  0  0
  1 15  1  0     0  0
  1 16  1  0     0  0
  2  4  2  0     0  0
  2  5  2  0     0  0
  2 12  1  0     0  0
  2 17  1  0     0  0
  3 18  1  0     0  0
  6 19  1  0     0  0
  6 32  1  0     0  0
  7 20  1  0     0  0
  7 34  1  0     0  0
  8 33  1  0     0  0
  9 15  2  0     0  0
  9 24  1  0     0  0
 10 21  1  0     0  0
 10 22  2  0     0  0
 11 21  2  0     0  0
 11 23  1  0     0  0
 12 35  1  0     0  0
 13 15  1  0     0  0
 13 22  1  0     0  0
 14 36  1  0     0  0
 14 37  1  0     0  0
 14 38  1  0     0  0
 16 24  2  0     0  0
 16 35  1  0     0  0
 17 26  1  0     0  0
 17 27  2  0     0  0
 18 26  2  0     0  0
 18 28  1  0     0  0
 19 20  1  0     0  0
 19 29  2  0     0  0
 20 30  2  0     0  0
 22 25  1  0     0  0
 23 25  2  0     0  0
 23 29  1  0     0  0
 25 30  1  0     0  0
 27 31  1  0     0  0
 28 31  2  0     0  0
 32 40  1  0     0  0
 33 39  1  0     0  0
 36 40  1  0     0  0
 37 41  1  0     0  0
 38 42  1  0     0  0
 39 41  1  0     0  0
 39 42  1  0     0  0
M  END
> <standard_type>
pIC50

> <# Confs.>
25

> <canonical_smiles>
OCC1CCN(CCCOC2=CC(N=CN=C3NC4=NC=C(CNS(=O)(C5=CC=CC(F)=C5)=O)S4)=C3C=C2OC)CC1

> <standard_relation>
=

> <Publication_ID>
nan

> <predicted_activity_value>
7.795880017344075

> <actual_activity_value>
7.552841968657781

> <Compound>
12

> <standard_units>
nM

> hash
16551182519414113262

$$$$
11
XXILIB    08252103493D 0   0.00000     0.00000

 42 46  0     1  0            999 V2000
   -6.8888   -0.5644    3.1149 S   0  0  0  0  0  2           0  0  0
  -10.3045   -4.2070    4.4986 S   0  0  2  0  0  6           0  0  0
  -12.2884   -5.0680   -0.1014 F   0  0  0  0  0  1           0  0  0
  -11.5277   -3.4448    4.6599 O   0  0  0  0  0  2           0  0  0
   -9.8526   -5.1033    5.5459 O   0  0  0  0  0  2           0  0  0
    1.3663    0.0000    0.0000 O   0  0  0  0  0  2           0  0  0
    0.2150   -0.0040    2.3369 O   0  0  0  0  0  2           0  0  0
    5.0174    4.4515   -7.1767 O   0  0  0  0  0  2           0  0  0
   -6.8594   -1.2913    0.6484 N   0  0  0  0  0  3           0  0  0
   -4.9297   -0.0274   -1.0290 N   0  0  0  0  0  3           0  0  0
   -2.8681    0.0032   -2.2504 N   0  0  0  0  0  3           0  0  0
   -9.0346   -3.1531    4.0720 N   0  0  0  0  0  3           0  0  0
   -4.9574   -0.0282    1.3548 N   0  0  0  0  0  3           0  0  0
    3.9895    1.1211   -3.3670 N   0  0  1  0  0  3           0  0  0
   -6.1549   -0.6302    1.5474 C   0  0  0  0  0  4           0  0  0
   -8.2126   -1.4866    2.5451 C   0  0  0  0  0  4           0  0  0
  -10.4578   -5.1582    3.0217 C   0  0  0  0  0  4           0  0  0
  -11.4613   -5.4816    0.8686 C   0  0  0  0  0  4           0  0  0
    0.0000    0.0000    0.0000 C   0  0  0  0  0  4           0  0  0
   -0.6183    0.0000    1.2539 C   0  0  0  0  0  4           0  0  0
   -4.2048   -0.0171   -2.1556 C   0  0  0  0  0  4           0  0  0
   -4.2418    0.0017    0.1400 C   0  0  0  0  0  4           0  0  0
   -2.1835    0.0057   -1.0994 C   0  0  0  0  0  4           0  0  0
   -8.0217   -1.7765    1.2115 C   0  0  0  0  0  4           0  0  0
   -2.8217    0.0002    0.1558 C   0  0  0  0  0  4           0  0  0
  -11.3281   -4.7186    2.0248 C   0  0  0  0  0  4           0  0  0
   -9.7400   -6.3462    2.8763 C   0  0  0  0  0  4           0  0  0
  -10.7503   -6.6668    0.7017 C   0  0  0  0  0  4           0  0  0
   -0.7915    0.0082   -1.1551 C   0  0  0  0  0  4           0  0  0
   -2.0168   -0.0093    1.3250 C   0  0  0  0  0  4           0  0  0
   -9.8892   -7.0983    1.7096 C   0  0  0  0  0  4           0  0  0
    1.9791    0.0000   -1.2891 C   0  0  0  0  0  4           0  0  0
    4.3662    4.5941   -5.9205 C   0  0  0  0  0  4           0  0  0
   -0.4342   -0.0039    3.6055 C   0  0  0  0  0  4           0  0  0
   -9.3411   -1.8597    3.4353 C   0  0  0  0  0  4           0  0  0
    4.2274    0.0000   -2.4549 C   0  0  0  0  0  4           0  0  0
    4.3812    2.3848   -2.7240 C   0  0  0  0  0  4           0  0  0
    4.7054    0.9464   -4.6411 C   0  0  0  0  0  4           0  0  0
    4.7543    3.4572   -4.9849 C   0  0  1  0  0  4           0  0  0
    3.4927   -0.0000   -1.1154 C   0  0  0  0  0  4           0  0  0
    4.0658    3.5846   -3.6192 C   0  0  0  0  0  4           0  0  0
    4.4159    2.0988   -5.6066 C   0  0  0  0  0  4           0  0  0
  1 15  1  0     0  0
  1 16  1  0     0  0
  2  4  2  0     0  0
  2  5  2  0     0  0
  2 12  1  0     0  0
  2 17  1  0     0  0
  3 18  1  0     0  0
  6 19  1  0     0  0
  6 32  1  0     0  0
  7 20  1  0     0  0
  7 34  1  0     0  0
  8 33  1  0     0  0
  9 15  2  0     0  0
  9 24  1  0     0  0
 10 21  1  0     0  0
 10 22  2  0     0  0
 11 21  2  0     0  0
 11 23  1  0     0  0
 12 35  1  0     0  0
 13 15  1  0     0  0
 13 22  1  0     0  0
 14 36  1  0     0  0
 14 37  1  0     0  0
 14 38  1  0     0  0
 16 24  2  0     0  0
 16 35  1  0     0  0
 17 26  1  0     0  0
 17 27  2  0     0  0
 18 26  2  0     0  0
 18 28  1  0     0  0
 19 20  1  0     0  0
 19 29  2  0     0  0
 20 30  2  0     0  0
 22 25  1  0     0  0
 23 25  2  0     0  0
 23 29  1  0     0  0
 25 30  1  0     0  0
 27 31  1  0     0  0
 28 31  2  0     0  0
 32 40  1  0     0  0
 33 39  1  0     0  0
 36 40  1  0     0  0
 37 41  1  0     0  0
 38 42  1  0     0  0
 39 41  1  0     0  0
 39 42  1  0     0  0
M  END
> <standard_type>
pIC50

> <# Confs.>
25

> <canonical_smiles>
OCC1CCN(CCCOC2=CC(N=CN=C3NC4=NC=C(CNS(=O)(C5=CC=CC(F)=C5)=O)S4)=C3C=C2OC)CC1

> <standard_relation>
=

> <Publication_ID>
nan

> <predicted_activity_value>
7.795880017344075

> <actual_activity_value>
7.552841968657781

> <Compound>
12

> <standard_units>
nM

> hash
16551182519414113262

$$$$
11
XXILIB    08252103493D 0   0.00000     0.00000

 42 46  0     1  0            999 V2000
   -6.8888   -0.5644    3.1149 S   0  0  0  0  0  2           0  0  0
  -11.3554   -0.4966    4.7212 S   0  0  2  0  0  6           0  0  0
   -7.8003    0.8837    8.0817 F   0  0  0  0  0  1           0  0  0
  -11.4010   -1.6783    5.5607 O   0  0  0  0  0  2           0  0  0
  -12.5818    0.1436    4.2849 O   0  0  0  0  0  2           0  0  0
    1.3663    0.0000   -0.0000 O   0  0  0  0  0  2           0  0  0
    0.2150   -0.0040    2.3369 O   0  0  0  0  0  2           0  0  0
    1.9249   -7.9869   -3.0904 O   0  0  0  0  0  2           0  0  0
   -6.8594   -1.2913    0.6484 N   0  0  0  0  0  3           0  0  0
   -4.9297   -0.0274   -1.0290 N   0  0  0  0  0  3           0  0  0
   -2.8681    0.0032   -2.2504 N   0  0  0  0  0  3           0  0  0
  -10.3674   -0.8042    3.3666 N   0  0  0  0  0  3           0  0  0
   -4.9574   -0.0282    1.3548 N   0  0  0  0  0  3           0  0  0
    3.3715   -3.0712   -2.4540 N   0  0  1  0  0  3           0  0  0
   -6.1549   -0.6302    1.5474 C   0  0  0  0  0  4           0  0  0
   -8.2126   -1.4866    2.5451 C   0  0  0  0  0  4           0  0  0
  -10.3967    0.7208    5.5626 C   0  0  0  0  0  4           0  0  0
   -8.7138    1.2688    7.1799 C   0  0  0  0  0  4           0  0  0
    0.0000    0.0000    0.0000 C   0  0  0  0  0  4           0  0  0
   -0.6183    0.0000    1.2539 C   0  0  0  0  0  4           0  0  0
   -4.2048   -0.0171   -2.1556 C   0  0  0  0  0  4           0  0  0
   -4.2418    0.0017    0.1400 C   0  0  0  0  0  4           0  0  0
   -2.1835    0.0057   -1.0994 C   0  0  0  0  0  4           0  0  0
   -8.0217   -1.7765    1.2115 C   0  0  0  0  0  4           0  0  0
   -2.8217    0.0002    0.1558 C   0  0  0  0  0  4           0  0  0
   -9.4553    0.3047    6.5036 C   0  0  0  0  0  4           0  0  0
  -10.6065    2.0767    5.3073 C   0  0  0  0  0  4           0  0  0
   -8.9040    2.6261    6.9360 C   0  0  0  0  0  4           0  0  0
   -0.7915    0.0082   -1.1551 C   0  0  0  0  0  4           0  0  0
   -2.0168   -0.0093    1.3250 C   0  0  0  0  0  4           0  0  0
   -9.8537    3.0283    5.9979 C   0  0  0  0  0  4           0  0  0
    1.9791   -0.6445   -1.1164 C   0  0  0  0  0  4           0  0  0
    2.2969   -6.9646   -4.0065 C   0  0  0  0  0  4           0  0  0
   -0.4342   -0.0039    3.6055 C   0  0  0  0  0  4           0  0  0
   -9.3411   -1.8597    3.4353 C   0  0  0  0  0  4           0  0  0
    4.0423   -1.9340   -1.8197 C   0  0  0  0  0  4           0  0  0
    4.2173   -3.6212   -3.5245 C   0  0  0  0  0  4           0  0  0
    3.0320   -4.1167   -1.4753 C   0  0  0  0  0  4           0  0  0
    3.0926   -5.8762   -3.2989 C   0  0  1  0  0  4           0  0  0
    3.3182   -1.2234   -0.6774 C   0  0  0  0  0  4           0  0  0
    3.5086   -4.7576   -4.2637 C   0  0  0  0  0  4           0  0  0
    2.2907   -5.2813   -2.1372 C   0  0  0  0  0  4           0  0  0
  1 15  1  0     0  0
  1 16  1  0     0  0
  2  4  2  0     0  0
  2  5  2  0     0  0
  2 12  1  0     0  0
  2 17  1  0     0  0
  3 18  1  0     0  0
  6 19  1  0     0  0
  6 32  1  0     0  0
  7 20  1  0     0  0
  7 34  1  0     0  0
  8 33  1  0     0  0
  9 15  2  0     0  0
  9 24  1  0     0  0
 10 21  1  0     0  0
 10 22  2  0     0  0
 11 21  2  0     0  0
 11 23  1  0     0  0
 12 35  1  0     0  0
 13 15  1  0     0  0
 13 22  1  0     0  0
 14 36  1  0     0  0
 14 37  1  0     0  0
 14 38  1  0     0  0
 16 24  2  0     0  0
 16 35  1  0     0  0
 17 26  1  0     0  0
 17 27  2  0     0  0
 18 26  2  0     0  0
 18 28  1  0     0  0
 19 20  1  0     0  0
 19 29  2  0     0  0
 20 30  2  0     0  0
 22 25  1  0     0  0
 23 25  2  0     0  0
 23 29  1  0     0  0
 25 30  1  0     0  0
 27 31  1  0     0  0
 28 31  2  0     0  0
 32 40  1  0     0  0
 33 39  1  0     0  0
 36 40  1  0     0  0
 37 41  1  0     0  0
 38 42  1  0     0  0
 39 41  1  0     0  0
 39 42  1  0     0  0
M  END
> <standard_type>
pIC50

> <# Confs.>
25

> <canonical_smiles>
OCC1CCN(CCCOC2=CC(N=CN=C3NC4=NC=C(CNS(=O)(C5=CC=CC(F)=C5)=O)S4)=C3C=C2OC)CC1

> <standard_relation>
=

> <Publication_ID>
nan

> <predicted_activity_value>
7.795880017344075

> <actual_activity_value>
7.552841968657781

> <Compound>
12

> <standard_units>
nM

> hash
16551182519414113262

$$$$
11
XXILIB    08252103493D 0   0.00000     0.00000

 42 46  0     1  0            999 V2000
   -6.9270    0.3445    3.1148 S   0  0  0  0  0  2           0  0  0
  -12.0887    0.4314    3.5617 S   0  0  2  0  0  6           0  0  0
  -13.0621    3.5336   -0.3454 F   0  0  0  0  0  1           0  0  0
  -12.3173    1.6463    4.3201 O   0  0  0  0  0  2           0  0  0
  -12.6877   -0.8215    3.9812 O   0  0  0  0  0  2           0  0  0
    1.3663   -0.0000    0.0000 O   0  0  0  0  0  2           0  0  0
    0.2150   -0.0040    2.3369 O   0  0  0  0  0  2           0  0  0
    6.8145   -3.4912   -6.3309 O   0  0  0  0  0  2           0  0  0
   -6.9609    1.0655    0.6466 N   0  0  0  0  0  3           0  0  0
   -4.9297   -0.0274   -1.0290 N   0  0  0  0  0  3           0  0  0
   -2.8681    0.0032   -2.2504 N   0  0  0  0  0  3           0  0  0
  -10.4129    0.2095    3.3428 N   0  0  0  0  0  3           0  0  0
   -4.9574   -0.0282    1.3548 N   0  0  0  0  0  3           0  0  0
    3.9895   -1.1211   -3.3670 N   0  0  1  0  0  3           0  0  0
   -6.2012    0.4712    1.5473 C   0  0  0  0  0  4           0  0  0
   -8.3382    1.1192    2.5352 C   0  0  0  0  0  4           0  0  0
  -12.6041    0.7316    1.9024 C   0  0  0  0  0  4           0  0  0
  -13.0470    2.2790    0.1255 C   0  0  0  0  0  4           0  0  0
    0.0000    0.0000    0.0000 C   0  0  0  0  0  4           0  0  0
   -0.6183    0.0000    1.2539 C   0  0  0  0  0  4           0  0  0
   -4.2048   -0.0171   -2.1556 C   0  0  0  0  0  4           0  0  0
   -4.2418    0.0017    0.1400 C   0  0  0  0  0  4           0  0  0
   -2.1835    0.0057   -1.0994 C   0  0  0  0  0  4           0  0  0
   -8.1690    1.4311    1.2037 C   0  0  0  0  0  4           0  0  0
   -2.8217    0.0002    0.1558 C   0  0  0  0  0  4           0  0  0
  -12.6214    2.0434    1.4294 C   0  0  0  0  0  4           0  0  0
  -13.0163   -0.3291    1.0944 C   0  0  0  0  0  4           0  0  0
  -13.4571    1.2344   -0.6984 C   0  0  0  0  0  4           0  0  0
   -0.7915    0.0082   -1.1551 C   0  0  0  0  0  4           0  0  0
   -2.0168   -0.0093    1.3250 C   0  0  0  0  0  4           0  0  0
  -13.4417   -0.0713   -0.2101 C   0  0  0  0  0  4           0  0  0
    1.9791    0.0000   -1.2891 C   0  0  0  0  0  4           0  0  0
    6.2453   -3.6554   -5.0380 C   0  0  0  0  0  4           0  0  0
   -0.4342   -0.0039    3.6055 C   0  0  0  0  0  4           0  0  0
   -9.5063    1.3690    3.4175 C   0  0  0  0  0  4           0  0  0
    4.2274    0.0000   -2.4549 C   0  0  0  0  0  4           0  0  0
    4.3690   -2.4077   -2.7610 C   0  0  0  0  0  4           0  0  0
    4.7085   -0.9054   -4.6324 C   0  0  0  0  0  4           0  0  0
    4.7427   -3.4130   -5.0804 C   0  0  1  0  0  4           0  0  0
    3.4927    0.0000   -1.1154 C   0  0  0  0  0  4           0  0  0
    4.0773   -3.5780   -3.7060 C   0  0  0  0  0  4           0  0  0
    4.4135   -2.0230   -5.6361 C   0  0  0  0  0  4           0  0  0
  1 15  1  0     0  0
  1 16  1  0     0  0
  2  4  2  0     0  0
  2  5  2  0     0  0
  2 12  1  0     0  0
  2 17  1  0     0  0
  3 18  1  0     0  0
  6 19  1  0     0  0
  6 32  1  0     0  0
  7 20  1  0     0  0
  7 34  1  0     0  0
  8 33  1  0     0  0
  9 15  2  0     0  0
  9 24  1  0     0  0
 10 21  1  0     0  0
 10 22  2  0     0  0
 11 21  2  0     0  0
 11 23  1  0     0  0
 12 35  1  0     0  0
 13 15  1  0     0  0
 13 22  1  0     0  0
 14 36  1  0     0  0
 14 37  1  0     0  0
 14 38  1  0     0  0
 16 24  2  0     0  0
 16 35  1  0     0  0
 17 26  1  0     0  0
 17 27  2  0     0  0
 18 26  2  0     0  0
 18 28  1  0     0  0
 19 20  1  0     0  0
 19 29  2  0     0  0
 20 30  2  0     0  0
 22 25  1  0     0  0
 23 25  2  0     0  0
 23 29  1  0     0  0
 25 30  1  0     0  0
 27 31  1  0     0  0
 28 31  2  0     0  0
 32 40  1  0     0  0
 33 39  1  0     0  0
 36 40  1  0     0  0
 37 41  1  0     0  0
 38 42  1  0     0  0
 39 41  1  0     0  0
 39 42  1  0     0  0
M  END
> <standard_type>
pIC50

> <# Confs.>
25

> <canonical_smiles>
OCC1CCN(CCCOC2=CC(N=CN=C3NC4=NC=C(CNS(=O)(C5=CC=CC(F)=C5)=O)S4)=C3C=C2OC)CC1

> <standard_relation>
=

> <Publication_ID>
nan

> <predicted_activity_value>
7.795880017344075

> <actual_activity_value>
7.552841968657781

> <Compound>
12

> <standard_units>
nM

> hash
16551182519414113262

$$$$
11
XXILIB    08252103493D 0   0.00000     0.00000

 42 46  0     1  0            999 V2000
   -6.9270    0.3445    3.1148 S   0  0  0  0  0  2           0  0  0
  -10.0060    2.9659    5.6013 S   0  0  2  0  0  6           0  0  0
   -5.7359    3.9792    8.1657 F   0  0  0  0  0  1           0  0  0
  -11.0907    2.0319    5.8349 O   0  0  0  0  0  2           0  0  0
  -10.2087    4.3903    5.7874 O   0  0  0  0  0  2           0  0  0
    1.3663   -0.0000    0.0000 O   0  0  0  0  0  2           0  0  0
    0.2150   -0.0040    2.3369 O   0  0  0  0  0  2           0  0  0
    6.8145   -3.4912   -6.3309 O   0  0  0  0  0  2           0  0  0
   -6.9609    1.0655    0.6466 N   0  0  0  0  0  3           0  0  0
   -4.9297   -0.0274   -1.0290 N   0  0  0  0  0  3           0  0  0
   -2.8681    0.0032   -2.2504 N   0  0  0  0  0  3           0  0  0
   -9.3448    2.6880    4.0550 N   0  0  0  0  0  3           0  0  0
   -4.9574   -0.0282    1.3548 N   0  0  0  0  0  3           0  0  0
    3.9895   -1.1211   -3.3670 N   0  0  1  0  0  3           0  0  0
   -6.2012    0.4712    1.5473 C   0  0  0  0  0  4           0  0  0
   -8.3382    1.1192    2.5352 C   0  0  0  0  0  4           0  0  0
   -8.6569    2.4874    6.6310 C   0  0  0  0  0  4           0  0  0
   -6.6431    3.0643    7.7969 C   0  0  0  0  0  4           0  0  0
    0.0000    0.0000    0.0000 C   0  0  0  0  0  4           0  0  0
   -0.6183    0.0000    1.2539 C   0  0  0  0  0  4           0  0  0
   -4.2048   -0.0171   -2.1556 C   0  0  0  0  0  4           0  0  0
   -4.2418    0.0017    0.1400 C   0  0  0  0  0  4           0  0  0
   -2.1835    0.0057   -1.0994 C   0  0  0  0  0  4           0  0  0
   -8.1690    1.4311    1.2037 C   0  0  0  0  0  4           0  0  0
   -2.8217    0.0002    0.1558 C   0  0  0  0  0  4           0  0  0
   -7.7171    3.4492    7.0001 C   0  0  0  0  0  4           0  0  0
   -8.5234    1.1591    7.0380 C   0  0  0  0  0  4           0  0  0
   -6.4946    1.7456    8.2180 C   0  0  0  0  0  4           0  0  0
   -0.7915    0.0082   -1.1551 C   0  0  0  0  0  4           0  0  0
   -2.0168   -0.0093    1.3250 C   0  0  0  0  0  4           0  0  0
   -7.4377    0.7929    7.8354 C   0  0  0  0  0  4           0  0  0
    1.9791    0.0000   -1.2891 C   0  0  0  0  0  4           0  0  0
    6.2453   -3.6554   -5.0380 C   0  0  0  0  0  4           0  0  0
   -0.4342   -0.0039    3.6055 C   0  0  0  0  0  4           0  0  0
   -9.5063    1.3690    3.4175 C   0  0  0  0  0  4           0  0  0
    4.2274    0.0000   -2.4549 C   0  0  0  0  0  4           0  0  0
    4.3690   -2.4077   -2.7610 C   0  0  0  0  0  4           0  0  0
    4.7085   -0.9054   -4.6324 C   0  0  0  0  0  4           0  0  0
    4.7427   -3.4130   -5.0804 C   0  0  1  0  0  4           0  0  0
    3.4927    0.0000   -1.1154 C   0  0  0  0  0  4           0  0  0
    4.0773   -3.5780   -3.7060 C   0  0  0  0  0  4           0  0  0
    4.4135   -2.0230   -5.6361 C   0  0  0  0  0  4           0  0  0
  1 15  1  0     0  0
  1 16  1  0     0  0
  2  4  2  0     0  0
  2  5  2  0     0  0
  2 12  1  0     0  0
  2 17  1  0     0  0
  3 18  1  0     0  0
  6 19  1  0     0  0
  6 32  1  0     0  0
  7 20  1  0     0  0
  7 34  1  0     0  0
  8 33  1  0     0  0
  9 15  2  0     0  0
  9 24  1  0     0  0
 10 21  1  0     0  0
 10 22  2  0     0  0
 11 21  2  0     0  0
 11 23  1  0     0  0
 12 35  1  0     0  0
 13 15  1  0     0  0
 13 22  1  0     0  0
 14 36  1  0     0  0
 14 37  1  0     0  0
 14 38  1  0     0  0
 16 24  2  0     0  0
 16 35  1  0     0  0
 17 26  1  0     0  0
 17 27  2  0     0  0
 18 26  2  0     0  0
 18 28  1  0     0  0
 19 20  1  0     0  0
 19 29  2  0     0  0
 20 30  2  0     0  0
 22 25  1  0     0  0
 23 25  2  0     0  0
 23 29  1  0     0  0
 25 30  1  0     0  0
 27 31  1  0     0  0
 28 31  2  0     0  0
 32 40  1  0     0  0
 33 39  1  0     0  0
 36 40  1  0     0  0
 37 41  1  0     0  0
 38 42  1  0     0  0
 39 41  1  0     0  0
 39 42  1  0     0  0
M  END
> <standard_type>
pIC50

> <# Confs.>
25

> <canonical_smiles>
OCC1CCN(CCCOC2=CC(N=CN=C3NC4=NC=C(CNS(=O)(C5=CC=CC(F)=C5)=O)S4)=C3C=C2OC)CC1

> <standard_relation>
=

> <Publication_ID>
nan

> <predicted_activity_value>
7.795880017344075

> <actual_activity_value>
7.552841968657781

> <Compound>
12

> <standard_units>
nM

> hash
16551182519414113262

$$$$
11
XXILIB    08252103493D 0   0.00000     0.00000

 42 46  0     1  0            999 V2000
   -6.9270    0.3445    3.1148 S   0  0  0  0  0  2           0  0  0
  -12.0887    0.4314    3.5617 S   0  0  2  0  0  6           0  0  0
  -13.7400   -1.1420   -0.9808 F   0  0  0  0  0  1           0  0  0
  -12.3173    1.6463    4.3201 O   0  0  0  0  0  2           0  0  0
  -12.6877   -0.8215    3.9812 O   0  0  0  0  0  2           0  0  0
    1.3663    0.0000    0.0000 O   0  0  0  0  0  2           0  0  0
    0.2150   -0.0040    2.3369 O   0  0  0  0  0  2           0  0  0
    5.0174    4.4515   -7.1767 O   0  0  0  0  0  2           0  0  0
   -6.9609    1.0655    0.6466 N   0  0  0  0  0  3           0  0  0
   -4.9297   -0.0274   -1.0290 N   0  0  0  0  0  3           0  0  0
   -2.8681    0.0032   -2.2504 N   0  0  0  0  0  3           0  0  0
  -10.4129    0.2095    3.3428 N   0  0  0  0  0  3           0  0  0
   -4.9574   -0.0282    1.3548 N   0  0  0  0  0  3           0  0  0
    3.9895    1.1211   -3.3670 N   0  0  1  0  0  3           0  0  0
   -6.2012    0.4712    1.5473 C   0  0  0  0  0  4           0  0  0
   -8.3382    1.1192    2.5352 C   0  0  0  0  0  4           0  0  0
  -12.6041    0.7316    1.9024 C   0  0  0  0  0  4           0  0  0
  -13.3685   -0.1125   -0.2073 C   0  0  0  0  0  4           0  0  0
    0.0000    0.0000    0.0000 C   0  0  0  0  0  4           0  0  0
   -0.6183    0.0000    1.2539 C   0  0  0  0  0  4           0  0  0
   -4.2048   -0.0171   -2.1556 C   0  0  0  0  0  4           0  0  0
   -4.2418    0.0017    0.1400 C   0  0  0  0  0  4           0  0  0
   -2.1835    0.0057   -1.0994 C   0  0  0  0  0  4           0  0  0
   -8.1690    1.4311    1.2037 C   0  0  0  0  0  4           0  0  0
   -2.8217    0.0002    0.1558 C   0  0  0  0  0  4           0  0  0
  -12.9805   -0.3508    1.1077 C   0  0  0  0  0  4           0  0  0
  -12.6012    2.0308    1.3924 C   0  0  0  0  0  4           0  0  0
  -13.3777    1.1763   -0.7335 C   0  0  0  0  0  4           0  0  0
   -0.7915    0.0082   -1.1551 C   0  0  0  0  0  4           0  0  0
   -2.0168   -0.0093    1.3250 C   0  0  0  0  0  4           0  0  0
  -12.9919    2.2483    0.0699 C   0  0  0  0  0  4           0  0  0
    1.9791    0.0000   -1.2891 C   0  0  0  0  0  4           0  0  0
    4.3662    4.5941   -5.9205 C   0  0  0  0  0  4           0  0  0
   -0.4342   -0.0039    3.6055 C   0  0  0  0  0  4           0  0  0
   -9.5063    1.3690    3.4175 C   0  0  0  0  0  4           0  0  0
    4.2274    0.0000   -2.4549 C   0  0  0  0  0  4           0  0  0
    4.3812    2.3848   -2.7240 C   0  0  0  0  0  4           0  0  0
    4.7054    0.9464   -4.6411 C   0  0  0  0  0  4           0  0  0
    4.7543    3.4572   -4.9849 C   0  0  1  0  0  4           0  0  0
    3.4927   -0.0000   -1.1154 C   0  0  0  0  0  4           0  0  0
    4.0658    3.5846   -3.6192 C   0  0  0  0  0  4           0  0  0
    4.4159    2.0988   -5.6066 C   0  0  0  0  0  4           0  0  0
  1 15  1  0     0  0
  1 16  1  0     0  0
  2  4  2  0     0  0
  2  5  2  0     0  0
  2 12  1  0     0  0
  2 17  1  0     0  0
  3 18  1  0     0  0
  6 19  1  0     0  0
  6 32  1  0     0  0
  7 20  1  0     0  0
  7 34  1  0     0  0
  8 33  1  0     0  0
  9 15  2  0     0  0
  9 24  1  0     0  0
 10 21  1  0     0  0
 10 22  2  0     0  0
 11 21  2  0     0  0
 11 23  1  0     0  0
 12 35  1  0     0  0
 13 15  1  0     0  0
 13 22  1  0     0  0
 14 36  1  0     0  0
 14 37  1  0     0  0
 14 38  1  0     0  0
 16 24  2  0     0  0
 16 35  1  0     0  0
 17 26  1  0     0  0
 17 27  2  0     0  0
 18 26  2  0     0  0
 18 28  1  0     0  0
 19 20  1  0     0  0
 19 29  2  0     0  0
 20 30  2  0     0  0
 22 25  1  0     0  0
 23 25  2  0     0  0
 23 29  1  0     0  0
 25 30  1  0     0  0
 27 31  1  0     0  0
 28 31  2  0     0  0
 32 40  1  0     0  0
 33 39  1  0     0  0
 36 40  1  0     0  0
 37 41  1  0     0  0
 38 42  1  0     0  0
 39 41  1  0     0  0
 39 42  1  0     0  0
M  END
> <standard_type>
pIC50

> <# Confs.>
25

> <canonical_smiles>
OCC1CCN(CCCOC2=CC(N=CN=C3NC4=NC=C(CNS(=O)(C5=CC=CC(F)=C5)=O)S4)=C3C=C2OC)CC1

> <standard_relation>
=

> <Publication_ID>
nan

> <predicted_activity_value>
7.795880017344075

> <actual_activity_value>
7.552841968657781

> <Compound>
12

> <standard_units>
nM

> hash
16551182519414113262

$$$$
11
XXILIB    08252103493D 0   0.00000     0.00000

 42 46  0     1  0            999 V2000
   -6.9270    0.3445    3.1148 S   0  0  0  0  0  2           0  0  0
  -12.1947    1.8072    3.0317 S   0  0  2  0  0  6           0  0  0
  -10.8768    6.5320    1.6987 F   0  0  0  0  0  1           0  0  0
  -12.1286    2.3817    4.3617 O   0  0  0  0  0  2           0  0  0
  -13.3120    0.9648    2.6489 O   0  0  0  0  0  2           0  0  0
    1.3663   -0.0000    0.0000 O   0  0  0  0  0  2           0  0  0
    0.2150   -0.0040    2.3369 O   0  0  0  0  0  2           0  0  0
    4.6360   -5.8315   -5.3810 O   0  0  0  0  0  2           0  0  0
   -6.9609    1.0655    0.6466 N   0  0  0  0  0  3           0  0  0
   -4.9297   -0.0274   -1.0290 N   0  0  0  0  0  3           0  0  0
   -2.8681    0.0032   -2.2504 N   0  0  0  0  0  3           0  0  0
  -10.7347    0.9949    2.6943 N   0  0  0  0  0  3           0  0  0
   -4.9574   -0.0282    1.3548 N   0  0  0  0  0  3           0  0  0
    3.9895   -1.1211   -3.3670 N   0  0  1  0  0  3           0  0  0
   -6.2012    0.4712    1.5473 C   0  0  0  0  0  4           0  0  0
   -8.3382    1.1192    2.5352 C   0  0  0  0  0  4           0  0  0
  -12.1136    3.1329    1.8718 C   0  0  0  0  0  4           0  0  0
  -11.4623    5.3794    1.3455 C   0  0  0  0  0  4           0  0  0
    0.0000    0.0000    0.0000 C   0  0  0  0  0  4           0  0  0
   -0.6183    0.0000    1.2539 C   0  0  0  0  0  4           0  0  0
   -4.2048   -0.0171   -2.1556 C   0  0  0  0  0  4           0  0  0
   -4.2418    0.0017    0.1400 C   0  0  0  0  0  4           0  0  0
   -2.1835    0.0057   -1.0994 C   0  0  0  0  0  4           0  0  0
   -8.1690    1.4311    1.2037 C   0  0  0  0  0  4           0  0  0
   -2.8217    0.0002    0.1558 C   0  0  0  0  0  4           0  0  0
  -11.5077    4.3285    2.2567 C   0  0  0  0  0  4           0  0  0
  -12.6776    2.9890    0.6033 C   0  0  0  0  0  4           0  0  0
  -12.0142    5.2544    0.0736 C   0  0  0  0  0  4           0  0  0
   -0.7915    0.0082   -1.1551 C   0  0  0  0  0  4           0  0  0
   -2.0168   -0.0093    1.3250 C   0  0  0  0  0  4           0  0  0
  -12.6234    4.0559   -0.2954 C   0  0  0  0  0  4           0  0  0
    1.9791    0.0000   -1.2891 C   0  0  0  0  0  4           0  0  0
    4.3754   -4.5608   -5.9639 C   0  0  0  0  0  4           0  0  0
   -0.4342   -0.0039    3.6055 C   0  0  0  0  0  4           0  0  0
   -9.5063    1.3690    3.4175 C   0  0  0  0  0  4           0  0  0
    4.2274    0.0000   -2.4549 C   0  0  0  0  0  4           0  0  0
    4.7787   -0.9463   -4.5960 C   0  0  0  0  0  4           0  0  0
    4.3002   -2.4127   -2.7332 C   0  0  0  0  0  4           0  0  0
    4.7582   -3.4431   -5.0032 C   0  0  1  0  0  4           0  0  0
    3.4927    0.0000   -1.1154 C   0  0  0  0  0  4           0  0  0
    4.4877   -2.0579   -5.6058 C   0  0  0  0  0  4           0  0  0
    4.0059   -3.5823   -3.6761 C   0  0  0  0  0  4           0  0  0
  1 15  1  0     0  0
  1 16  1  0     0  0
  2  4  2  0     0  0
  2  5  2  0     0  0
  2 12  1  0     0  0
  2 17  1  0     0  0
  3 18  1  0     0  0
  6 19  1  0     0  0
  6 32  1  0     0  0
  7 20  1  0     0  0
  7 34  1  0     0  0
  8 33  1  0     0  0
  9 15  2  0     0  0
  9 24  1  0     0  0
 10 21  1  0     0  0
 10 22  2  0     0  0
 11 21  2  0     0  0
 11 23  1  0     0  0
 12 35  1  0     0  0
 13 15  1  0     0  0
 13 22  1  0     0  0
 14 36  1  0     0  0
 14 37  1  0     0  0
 14 38  1  0     0  0
 16 24  2  0     0  0
 16 35  1  0     0  0
 17 26  1  0     0  0
 17 27  2  0     0  0
 18 26  2  0     0  0
 18 28  1  0     0  0
 19 20  1  0     0  0
 19 29  2  0     0  0
 20 30  2  0     0  0
 22 25  1  0     0  0
 23 25  2  0     0  0
 23 29  1  0     0  0
 25 30  1  0     0  0
 27 31  1  0     0  0
 28 31  2  0     0  0
 32 40  1  0     0  0
 33 39  1  0     0  0
 36 40  1  0     0  0
 37 41  1  0     0  0
 38 42  1  0     0  0
 39 41  1  0     0  0
 39 42  1  0     0  0
M  END
> <standard_type>
pIC50

> <# Confs.>
25

> <canonical_smiles>
OCC1CCN(CCCOC2=CC(N=CN=C3NC4=NC=C(CNS(=O)(C5=CC=CC(F)=C5)=O)S4)=C3C=C2OC)CC1

> <standard_relation>
=

> <Publication_ID>
nan

> <predicted_activity_value>
7.795880017344075

> <actual_activity_value>
7.552841968657781

> <Compound>
12

> <standard_units>
nM

> hash
16551182519414113262

$$$$
11
XXILIB    08252103493D 0   0.00000     0.00000

 42 46  0     1  0            999 V2000
   -6.8888   -0.5644    3.1149 S   0  0  0  0  0  2           0  0  0
  -10.3045   -4.2070    4.4986 S   0  0  2  0  0  6           0  0  0
  -12.2884   -5.0680   -0.1014 F   0  0  0  0  0  1           0  0  0
  -11.5277   -3.4448    4.6599 O   0  0  0  0  0  2           0  0  0
   -9.8526   -5.1033    5.5459 O   0  0  0  0  0  2           0  0  0
    1.3663   -0.0000    0.0000 O   0  0  0  0  0  2           0  0  0
    0.2150   -0.0040    2.3369 O   0  0  0  0  0  2           0  0  0
    6.8145   -3.4912   -6.3309 O   0  0  0  0  0  2           0  0  0
   -6.8594   -1.2913    0.6484 N   0  0  0  0  0  3           0  0  0
   -4.9297   -0.0274   -1.0290 N   0  0  0  0  0  3           0  0  0
   -2.8681    0.0032   -2.2504 N   0  0  0  0  0  3           0  0  0
   -9.0346   -3.1531    4.0720 N   0  0  0  0  0  3           0  0  0
   -4.9574   -0.0282    1.3548 N   0  0  0  0  0  3           0  0  0
    3.9895   -1.1211   -3.3670 N   0  0  1  0  0  3           0  0  0
   -6.1549   -0.6302    1.5474 C   0  0  0  0  0  4           0  0  0
   -8.2126   -1.4866    2.5451 C   0  0  0  0  0  4           0  0  0
  -10.4578   -5.1582    3.0217 C   0  0  0  0  0  4           0  0  0
  -11.4613   -5.4816    0.8686 C   0  0  0  0  0  4           0  0  0
    0.0000    0.0000    0.0000 C   0  0  0  0  0  4           0  0  0
   -0.6183    0.0000    1.2539 C   0  0  0  0  0  4           0  0  0
   -4.2048   -0.0171   -2.1556 C   0  0  0  0  0  4           0  0  0
   -4.2418    0.0017    0.1400 C   0  0  0  0  0  4           0  0  0
   -2.1835    0.0057   -1.0994 C   0  0  0  0  0  4           0  0  0
   -8.0217   -1.7765    1.2115 C   0  0  0  0  0  4           0  0  0
   -2.8217    0.0002    0.1558 C   0  0  0  0  0  4           0  0  0
  -11.3281   -4.7186    2.0248 C   0  0  0  0  0  4           0  0  0
   -9.7400   -6.3462    2.8763 C   0  0  0  0  0  4           0  0  0
  -10.7503   -6.6668    0.7017 C   0  0  0  0  0  4           0  0  0
   -0.7915    0.0082   -1.1551 C   0  0  0  0  0  4           0  0  0
   -2.0168   -0.0093    1.3250 C   0  0  0  0  0  4           0  0  0
   -9.8892   -7.0983    1.7096 C   0  0  0  0  0  4           0  0  0
    1.9791    0.0000   -1.2891 C   0  0  0  0  0  4           0  0  0
    6.2453   -3.6554   -5.0380 C   0  0  0  0  0  4           0  0  0
   -0.4342   -0.0039    3.6055 C   0  0  0  0  0  4           0  0  0
   -9.3411   -1.8597    3.4353 C   0  0  0  0  0  4           0  0  0
    4.2274    0.0000   -2.4549 C   0  0  0  0  0  4           0  0  0
    4.3690   -2.4077   -2.7610 C   0  0  0  0  0  4           0  0  0
    4.7085   -0.9054   -4.6324 C   0  0  0  0  0  4           0  0  0
    4.7427   -3.4130   -5.0804 C   0  0  1  0  0  4           0  0  0
    3.4927    0.0000   -1.1154 C   0  0  0  0  0  4           0  0  0
    4.0773   -3.5780   -3.7060 C   0  0  0  0  0  4           0  0  0
    4.4135   -2.0230   -5.6361 C   0  0  0  0  0  4           0  0  0
  1 15  1  0     0  0
  1 16  1  0     0  0
  2  4  2  0     0  0
  2  5  2  0     0  0
  2 12  1  0     0  0
  2 17  1  0     0  0
  3 18  1  0     0  0
  6 19  1  0     0  0
  6 32  1  0     0  0
  7 20  1  0     0  0
  7 34  1  0     0  0
  8 33  1  0     0  0
  9 15  2  0     0  0
  9 24  1  0     0  0
 10 21  1  0     0  0
 10 22  2  0     0  0
 11 21  2  0     0  0
 11 23  1  0     0  0
 12 35  1  0     0  0
 13 15  1  0     0  0
 13 22  1  0     0  0
 14 36  1  0     0  0
 14 37  1  0     0  0
 14 38  1  0     0  0
 16 24  2  0     0  0
 16 35  1  0     0  0
 17 26  1  0     0  0
 17 27  2  0     0  0
 18 26  2  0     0  0
 18 28  1  0     0  0
 19 20  1  0     0  0
 19 29  2  0     0  0
 20 30  2  0     0  0
 22 25  1  0     0  0
 23 25  2  0     0  0
 23 29  1  0     0  0
 25 30  1  0     0  0
 27 31  1  0     0  0
 28 31  2  0     0  0
 32 40  1  0     0  0
 33 39  1  0     0  0
 36 40  1  0     0  0
 37 41  1  0     0  0
 38 42  1  0     0  0
 39 41  1  0     0  0
 39 42  1  0     0  0
M  END
> <standard_type>
pIC50

> <# Confs.>
25

> <canonical_smiles>
OCC1CCN(CCCOC2=CC(N=CN=C3NC4=NC=C(CNS(=O)(C5=CC=CC(F)=C5)=O)S4)=C3C=C2OC)CC1

> <standard_relation>
=

> <Publication_ID>
nan

> <predicted_activity_value>
7.795880017344075

> <actual_activity_value>
7.552841968657781

> <Compound>
12

> <standard_units>
nM

> hash
16551182519414113262

$$$$
11
XXILIB    08252103493D 0   0.00000     0.00000

 42 46  0     1  0            999 V2000
   -6.8888   -0.5644    3.1149 S   0  0  0  0  0  2           0  0  0
  -10.3045   -4.2070    4.4986 S   0  0  2  0  0  6           0  0  0
   -9.1012   -8.1896    1.5783 F   0  0  0  0  0  1           0  0  0
  -11.5277   -3.4448    4.6599 O   0  0  0  0  0  2           0  0  0
   -9.8526   -5.1033    5.5459 O   0  0  0  0  0  2           0  0  0
    1.3663    0.0000    0.0000 O   0  0  0  0  0  2           0  0  0
    0.2150   -0.0040    2.3369 O   0  0  0  0  0  2           0  0  0
    5.0174    4.4515   -7.1767 O   0  0  0  0  0  2           0  0  0
   -6.8594   -1.2913    0.6484 N   0  0  0  0  0  3           0  0  0
   -4.9297   -0.0274   -1.0290 N   0  0  0  0  0  3           0  0  0
   -2.8681    0.0032   -2.2504 N   0  0  0  0  0  3           0  0  0
   -9.0346   -3.1531    4.0720 N   0  0  0  0  0  3           0  0  0
   -4.9574   -0.0282    1.3548 N   0  0  0  0  0  3           0  0  0
    3.9895    1.1211   -3.3670 N   0  0  1  0  0  3           0  0  0
   -6.1549   -0.6302    1.5474 C   0  0  0  0  0  4           0  0  0
   -8.2126   -1.4866    2.5451 C   0  0  0  0  0  4           0  0  0
  -10.4578   -5.1582    3.0217 C   0  0  0  0  0  4           0  0  0
   -9.8133   -7.0627    1.7158 C   0  0  0  0  0  4           0  0  0
    0.0000    0.0000    0.0000 C   0  0  0  0  0  4           0  0  0
   -0.6183    0.0000    1.2539 C   0  0  0  0  0  4           0  0  0
   -4.2048   -0.0171   -2.1556 C   0  0  0  0  0  4           0  0  0
   -4.2418    0.0017    0.1400 C   0  0  0  0  0  4           0  0  0
   -2.1835    0.0057   -1.0994 C   0  0  0  0  0  4           0  0  0
   -8.0217   -1.7765    1.2115 C   0  0  0  0  0  4           0  0  0
   -2.8217    0.0002    0.1558 C   0  0  0  0  0  4           0  0  0
   -9.7045   -6.3245    2.8905 C   0  0  0  0  0  4           0  0  0
  -11.2973   -4.7257    1.9942 C   0  0  0  0  0  4           0  0  0
  -10.6490   -6.6514    0.6812 C   0  0  0  0  0  4           0  0  0
   -0.7915    0.0082   -1.1551 C   0  0  0  0  0  4           0  0  0
   -2.0168   -0.0093    1.3250 C   0  0  0  0  0  4           0  0  0
  -11.3908   -5.4795    0.8229 C   0  0  0  0  0  4           0  0  0
    1.9791    0.0000   -1.2891 C   0  0  0  0  0  4           0  0  0
    4.3662    4.5941   -5.9205 C   0  0  0  0  0  4           0  0  0
   -0.4342   -0.0039    3.6055 C   0  0  0  0  0  4           0  0  0
   -9.3411   -1.8597    3.4353 C   0  0  0  0  0  4           0  0  0
    4.2274    0.0000   -2.4549 C   0  0  0  0  0  4           0  0  0
    4.3812    2.3848   -2.7240 C   0  0  0  0  0  4           0  0  0
    4.7054    0.9464   -4.6411 C   0  0  0  0  0  4           0  0  0
    4.7543    3.4572   -4.9849 C   0  0  1  0  0  4           0  0  0
    3.4927   -0.0000   -1.1154 C   0  0  0  0  0  4           0  0  0
    4.0658    3.5846   -3.6192 C   0  0  0  0  0  4           0  0  0
    4.4159    2.0988   -5.6066 C   0  0  0  0  0  4           0  0  0
  1 15  1  0     0  0
  1 16  1  0     0  0
  2  4  2  0     0  0
  2  5  2  0     0  0
  2 12  1  0     0  0
  2 17  1  0     0  0
  3 18  1  0     0  0
  6 19  1  0     0  0
  6 32  1  0     0  0
  7 20  1  0     0  0
  7 34  1  0     0  0
  8 33  1  0     0  0
  9 15  2  0     0  0
  9 24  1  0     0  0
 10 21  1  0     0  0
 10 22  2  0     0  0
 11 21  2  0     0  0
 11 23  1  0     0  0
 12 35  1  0     0  0
 13 15  1  0     0  0
 13 22  1  0     0  0
 14 36  1  0     0  0
 14 37  1  0     0  0
 14 38  1  0     0  0
 16 24  2  0     0  0
 16 35  1  0     0  0
 17 26  1  0     0  0
 17 27  2  0     0  0
 18 26  2  0     0  0
 18 28  1  0     0  0
 19 20  1  0     0  0
 19 29  2  0     0  0
 20 30  2  0     0  0
 22 25  1  0     0  0
 23 25  2  0     0  0
 23 29  1  0     0  0
 25 30  1  0     0  0
 27 31  1  0     0  0
 28 31  2  0     0  0
 32 40  1  0     0  0
 33 39  1  0     0  0
 36 40  1  0     0  0
 37 41  1  0     0  0
 38 42  1  0     0  0
 39 41  1  0     0  0
 39 42  1  0     0  0
M  END
> <standard_type>
pIC50

> <# Confs.>
25

> <canonical_smiles>
OCC1CCN(CCCOC2=CC(N=CN=C3NC4=NC=C(CNS(=O)(C5=CC=CC(F)=C5)=O)S4)=C3C=C2OC)CC1

> <standard_relation>
=

> <Publication_ID>
nan

> <predicted_activity_value>
7.795880017344075

> <actual_activity_value>
7.552841968657781

> <Compound>
12

> <standard_units>
nM

> hash
16551182519414113262

$$$$
11
XXILIB    08252103493D 0   0.00000     0.00000

 42 46  0     1  0            999 V2000
   -6.8888   -0.5644    3.1149 S   0  0  0  0  0  2           0  0  0
  -10.1512   -3.8466    5.1571 S   0  0  2  0  0  6           0  0  0
  -14.1196   -4.4487    2.0384 F   0  0  0  0  0  1           0  0  0
  -10.9989   -2.8051    5.7050 O   0  0  0  0  0  2           0  0  0
   -9.4567   -4.7682    6.0362 O   0  0  0  0  0  2           0  0  0
    1.3663   -0.0000    0.0000 O   0  0  0  0  0  2           0  0  0
    0.2150   -0.0040    2.3369 O   0  0  0  0  0  2           0  0  0
    4.6360   -5.8315   -5.3810 O   0  0  0  0  0  2           0  0  0
   -6.8594   -1.2913    0.6484 N   0  0  0  0  0  3           0  0  0
   -4.9297   -0.0274   -1.0290 N   0  0  0  0  0  3           0  0  0
   -2.8681    0.0032   -2.2504 N   0  0  0  0  0  3           0  0  0
   -9.0346   -3.1531    4.0720 N   0  0  0  0  0  3           0  0  0
   -4.9574   -0.0282    1.3548 N   0  0  0  0  0  3           0  0  0
    3.9895   -1.1211   -3.3670 N   0  0  1  0  0  3           0  0  0
   -6.1549   -0.6302    1.5474 C   0  0  0  0  0  4           0  0  0
   -8.2126   -1.4866    2.5451 C   0  0  0  0  0  4           0  0  0
  -11.1329   -4.8102    4.0538 C   0  0  0  0  0  4           0  0  0
  -13.0404   -4.9969    2.6137 C   0  0  0  0  0  4           0  0  0
    0.0000    0.0000    0.0000 C   0  0  0  0  0  4           0  0  0
   -0.6183    0.0000    1.2539 C   0  0  0  0  0  4           0  0  0
   -4.2048   -0.0171   -2.1556 C   0  0  0  0  0  4           0  0  0
   -4.2418    0.0017    0.1400 C   0  0  0  0  0  4           0  0  0
   -2.1835    0.0057   -1.0994 C   0  0  0  0  0  4           0  0  0
   -8.0217   -1.7765    1.2115 C   0  0  0  0  0  4           0  0  0
   -2.8217    0.0002    0.1558 C   0  0  0  0  0  4           0  0  0
  -12.2569   -4.2279    3.4689 C   0  0  0  0  0  4           0  0  0
  -10.8001   -6.1419    3.8018 C   0  0  0  0  0  4           0  0  0
  -12.7228   -6.3254    2.3449 C   0  0  0  0  0  4           0  0  0
   -0.7915    0.0082   -1.1551 C   0  0  0  0  0  4           0  0  0
   -2.0168   -0.0093    1.3250 C   0  0  0  0  0  4           0  0  0
  -11.6003   -6.8970    2.9423 C   0  0  0  0  0  4           0  0  0
    1.9791    0.0000   -1.2891 C   0  0  0  0  0  4           0  0  0
    4.3754   -4.5608   -5.9639 C   0  0  0  0  0  4           0  0  0
   -0.4342   -0.0039    3.6055 C   0  0  0  0  0  4           0  0  0
   -9.3411   -1.8597    3.4353 C   0  0  0  0  0  4           0  0  0
    4.2274    0.0000   -2.4549 C   0  0  0  0  0  4           0  0  0
    4.7787   -0.9463   -4.5960 C   0  0  0  0  0  4           0  0  0
    4.3002   -2.4127   -2.7332 C   0  0  0  0  0  4           0  0  0
    4.7582   -3.4431   -5.0032 C   0  0  1  0  0  4           0  0  0
    3.4927    0.0000   -1.1154 C   0  0  0  0  0  4           0  0  0
    4.4877   -2.0579   -5.6058 C   0  0  0  0  0  4           0  0  0
    4.0059   -3.5823   -3.6761 C   0  0  0  0  0  4           0  0  0
  1 15  1  0     0  0
  1 16  1  0     0  0
  2  4  2  0     0  0
  2  5  2  0     0  0
  2 12  1  0     0  0
  2 17  1  0     0  0
  3 18  1  0     0  0
  6 19  1  0     0  0
  6 32  1  0     0  0
  7 20  1  0     0  0
  7 34  1  0     0  0
  8 33  1  0     0  0
  9 15  2  0     0  0
  9 24  1  0     0  0
 10 21  1  0     0  0
 10 22  2  0     0  0
 11 21  2  0     0  0
 11 23  1  0     0  0
 12 35  1  0     0  0
 13 15  1  0     0  0
 13 22  1  0     0  0
 14 36  1  0     0  0
 14 37  1  0     0  0
 14 38  1  0     0  0
 16 24  2  0     0  0
 16 35  1  0     0  0
 17 26  1  0     0  0
 17 27  2  0     0  0
 18 26  2  0     0  0
 18 28  1  0     0  0
 19 20  1  0     0  0
 19 29  2  0     0  0
 20 30  2  0     0  0
 22 25  1  0     0  0
 23 25  2  0     0  0
 23 29  1  0     0  0
 25 30  1  0     0  0
 27 31  1  0     0  0
 28 31  2  0     0  0
 32 40  1  0     0  0
 33 39  1  0     0  0
 36 40  1  0     0  0
 37 41  1  0     0  0
 38 42  1  0     0  0
 39 41  1  0     0  0
 39 42  1  0     0  0
M  END
> <standard_type>
pIC50

> <# Confs.>
25

> <canonical_smiles>
OCC1CCN(CCCOC2=CC(N=CN=C3NC4=NC=C(CNS(=O)(C5=CC=CC(F)=C5)=O)S4)=C3C=C2OC)CC1

> <standard_relation>
=

> <Publication_ID>
nan

> <predicted_activity_value>
7.795880017344075

> <actual_activity_value>
7.552841968657781

> <Compound>
12

> <standard_units>
nM

> hash
16551182519414113262

$$$$
14
XXILIB    08252103493D 0   0.00000     0.00000

 34 38  0     1  0            999 V2000
    6.2318   -1.1070    3.5036 F   0  0  0  0  0  1           0  0  0
   -0.3116    0.0000    2.2959 O   0  0  0  0  0  2           0  0  0
    3.5901    0.0140    5.1462 O   0  0  0  0  0  2           0  0  0
    3.3931    0.0019   -0.7454 N   0  0  0  0  0  3           0  0  0
    2.0987    0.0000   -1.1466 N   0  0  0  0  0  3           0  0  0
   -6.4390   -0.0657    0.5075 N   0  0  1  0  0  3           0  0  0
    0.0000    0.0000    0.0000 N   0  0  0  0  0  3           0  0  0
    3.7470    0.0090    2.8269 N   0  0  2  0  0  3           0  0  0
   -9.2925   -0.0159    0.4635 N   0  0  1  0  0  3           0  0  0
    1.3840    0.0000   -0.0000 C   0  0  0  0  0  4           0  0  0
    3.5006    0.0061    0.5950 C   0  0  0  0  0  4           0  0  0
   -5.0666   -0.0447    0.6547 C   0  0  0  0  0  4           0  0  0
    2.2422    0.0013    1.1104 C   0  0  0  0  0  4           0  0  0
    6.2817    0.0918    5.5576 C   0  0  0  0  0  4           0  0  0
   -2.2291   -0.0022    0.9550 C   0  0  0  0  0  4           0  0  0
   -4.2237    0.5099   -0.3262 C   0  0  0  0  0  4           0  0  0
   -4.4333   -0.5755    1.7934 C   0  0  0  0  0  4           0  0  0
    6.5452   -1.0736    6.2897 C   0  0  0  0  0  4           0  0  0
    6.5309    1.3373    6.1515 C   0  0  0  0  0  4           0  0  0
   -2.8291    0.5336   -0.1852 C   0  0  0  0  0  4           0  0  0
   -3.0405   -0.5573    1.9458 C   0  0  0  0  0  4           0  0  0
    7.0359   -0.9943    7.5945 C   0  0  0  0  0  4           0  0  0
    7.0218    1.4147    7.4559 C   0  0  0  0  0  4           0  0  0
    7.2727    0.2493    8.1774 C   0  0  0  0  0  4           0  0  0
    5.7716    0.0089    4.1457 C   0  0  2  0  0  4           0  0  0
   -0.7592    0.0000    1.1511 C   0  0  0  0  0  4           0  0  0
    4.2583    0.0168    4.1132 C   0  0  0  0  0  4           0  0  0
    4.5778    0.0126    1.5794 C   0  0  0  0  0  4           0  0  0
    2.2697    0.0003    2.5765 C   0  0  0  0  0  4           0  0  0
   -7.2030   -1.1534    1.1283 C   0  0  0  0  0  4           0  0  0
   -7.1487    1.1992    0.2877 C   0  0  0  0  0  4           0  0  0
   -8.5810   -1.2989    0.4803 C   0  0  0  0  0  4           0  0  0
   -8.5291    0.9574   -0.3254 C   0  0  0  0  0  4           0  0  0
  -10.6370   -0.1803   -0.0870 C   0  0  0  0  0  4           0  0  0
  1 25  1  0     0  0
  2 26  2  0     0  0
  3 27  2  0     0  0
  4  5  1  0     0  0
  4 11  1  0     0  0
  5 10  2  0     0  0
  6 12  1  0     0  0
  6 30  1  0     0  0
  6 31  1  0     0  0
  7 10  1  0     0  0
  7 26  1  0     0  0
  8 27  1  0     0  0
  8 28  1  0     0  0
  8 29  1  0     0  0
  9 32  1  0     0  0
  9 33  1  0     0  0
  9 34  1  0     0  0
 10 13  1  0     0  0
 11 13  2  0     0  0
 11 28  1  0     0  0
 12 16  2  0     0  0
 12 17  1  0     0  0
 13 29  1  0     0  0
 14 18  2  0     0  0
 14 19  1  0     0  0
 14 25  1  0     0  0
 15 20  2  0     0  0
 15 21  1  0     0  0
 15 26  1  0     0  0
 16 20  1  0     0  0
 17 21  2  0     0  0
 18 22  1  0     0  0
 19 23  2  0     0  0
 22 24  2  0     0  0
 23 24  1  0     0  0
 25 27  1  0     0  0
 30 32  1  0     0  0
 31 33  1  0     0  0
M  END
> <standard_type>
pIC50

> <# Confs.>
25

> <canonical_smiles>
O=C(N1CC(C(NC(C2=CC=C(N3CCN(C)CC3)C=C2)=O)=NN4)=C4C1)[C@H](F)C5=CC=CC=C5

> <standard_relation>
=

> <Publication_ID>
nan

> <predicted_activity_value>
6.292429823902063

> <actual_activity_value>
6.522878745280337

> <Compound>
15

> <standard_units>
nM

> hash
7649752598964339451

$$$$
14
XXILIB    08252103493D 0   0.00000     0.00000

 34 38  0     1  0            999 V2000
    6.2318   -1.1070    3.5036 F   0  0  0  0  0  1           0  0  0
   -0.3116    0.0000    2.2959 O   0  0  0  0  0  2           0  0  0
    3.5901    0.0140    5.1462 O   0  0  0  0  0  2           0  0  0
    3.3931    0.0019   -0.7454 N   0  0  0  0  0  3           0  0  0
    2.0987    0.0000   -1.1466 N   0  0  0  0  0  3           0  0  0
   -6.4391    0.0492    0.5071 N   0  0  1  0  0  3           0  0  0
    0.0000    0.0000    0.0000 N   0  0  0  0  0  3           0  0  0
    3.7470    0.0090    2.8269 N   0  0  2  0  0  3           0  0  0
   -9.2690    0.3465    0.2834 N   0  0  1  0  0  3           0  0  0
    1.3840    0.0000   -0.0000 C   0  0  0  0  0  4           0  0  0
    3.5006    0.0061    0.5950 C   0  0  0  0  0  4           0  0  0
   -5.0666    0.0337    0.6537 C   0  0  0  0  0  4           0  0  0
    2.2422    0.0013    1.1104 C   0  0  0  0  0  4           0  0  0
    6.2817    0.0918    5.5576 C   0  0  0  0  0  4           0  0  0
   -2.2291   -0.0022    0.9550 C   0  0  0  0  0  4           0  0  0
   -4.2218   -0.5167   -0.3282 C   0  0  0  0  0  4           0  0  0
   -4.4348    0.5675    1.7918 C   0  0  0  0  0  4           0  0  0
    6.5452   -1.0736    6.2897 C   0  0  0  0  0  4           0  0  0
    6.5309    1.3373    6.1515 C   0  0  0  0  0  4           0  0  0
   -2.8273   -0.5380   -0.1862 C   0  0  0  0  0  4           0  0  0
   -3.0421    0.5524    1.9448 C   0  0  0  0  0  4           0  0  0
    7.0359   -0.9943    7.5945 C   0  0  0  0  0  4           0  0  0
    7.0218    1.4147    7.4559 C   0  0  0  0  0  4           0  0  0
    7.2727    0.2493    8.1774 C   0  0  0  0  0  4           0  0  0
    5.7716    0.0089    4.1457 C   0  0  2  0  0  4           0  0  0
   -0.7592    0.0000    1.1511 C   0  0  0  0  0  4           0  0  0
    4.2583    0.0168    4.1132 C   0  0  0  0  0  4           0  0  0
    4.5778    0.0126    1.5794 C   0  0  0  0  0  4           0  0  0
    2.2697    0.0003    2.5765 C   0  0  0  0  0  4           0  0  0
   -7.2818   -0.0111    1.7065 C   0  0  0  0  0  4           0  0  0
   -7.0193    0.6918   -0.6771 C   0  0  0  0  0  4           0  0  0
   -8.6998   -0.4697    1.3614 C   0  0  0  0  0  4           0  0  0
   -8.4481    0.2048   -0.9243 C   0  0  0  0  0  4           0  0  0
  -10.6506   -0.0486    0.0133 C   0  0  0  0  0  4           0  0  0
  1 25  1  0     0  0
  2 26  2  0     0  0
  3 27  2  0     0  0
  4  5  1  0     0  0
  4 11  1  0     0  0
  5 10  2  0     0  0
  6 12  1  0     0  0
  6 30  1  0     0  0
  6 31  1  0     0  0
  7 10  1  0     0  0
  7 26  1  0     0  0
  8 27  1  0     0  0
  8 28  1  0     0  0
  8 29  1  0     0  0
  9 32  1  0     0  0
  9 33  1  0     0  0
  9 34  1  0     0  0
 10 13  1  0     0  0
 11 13  2  0     0  0
 11 28  1  0     0  0
 12 16  2  0     0  0
 12 17  1  0     0  0
 13 29  1  0     0  0
 14 18  2  0     0  0
 14 19  1  0     0  0
 14 25  1  0     0  0
 15 20  2  0     0  0
 15 21  1  0     0  0
 15 26  1  0     0  0
 16 20  1  0     0  0
 17 21  2  0     0  0
 18 22  1  0     0  0
 19 23  2  0     0  0
 22 24  2  0     0  0
 23 24  1  0     0  0
 25 27  1  0     0  0
 30 32  1  0     0  0
 31 33  1  0     0  0
M  END
> <standard_type>
pIC50

> <# Confs.>
25

> <canonical_smiles>
O=C(N1CC(C(NC(C2=CC=C(N3CCN(C)CC3)C=C2)=O)=NN4)=C4C1)[C@H](F)C5=CC=CC=C5

> <standard_relation>
=

> <Publication_ID>
nan

> <predicted_activity_value>
6.292429823902063

> <actual_activity_value>
6.522878745280337

> <Compound>
15

> <standard_units>
nM

> hash
7649752598964339451

$$$$
14
XXILIB    08252103493D 0   0.00000     0.00000

 34 38  0     1  0            999 V2000
    2.4002    1.1425    5.0130 F   0  0  0  0  0  1           0  0  0
   -0.3116    0.0000    2.2959 O   0  0  0  0  0  2           0  0  0
    5.4534    0.0278    4.4054 O   0  0  0  0  0  2           0  0  0
    3.3931    0.0019   -0.7454 N   0  0  0  0  0  3           0  0  0
    2.0987    0.0000   -1.1466 N   0  0  0  0  0  3           0  0  0
   -6.4391    0.0492    0.5071 N   0  0  1  0  0  3           0  0  0
    0.0000    0.0000    0.0000 N   0  0  0  0  0  3           0  0  0
    3.7470    0.0090    2.8269 N   0  0  2  0  0  3           0  0  0
   -9.2690    0.3465    0.2834 N   0  0  1  0  0  3           0  0  0
    1.3840   -0.0000    0.0000 C   0  0  0  0  0  4           0  0  0
    3.5006    0.0061    0.5950 C   0  0  0  0  0  4           0  0  0
   -5.0666    0.0337    0.6537 C   0  0  0  0  0  4           0  0  0
    2.2422    0.0013    1.1104 C   0  0  0  0  0  4           0  0  0
    3.7790   -0.0344    6.5532 C   0  0  0  0  0  4           0  0  0
   -2.2291   -0.0022    0.9550 C   0  0  0  0  0  4           0  0  0
   -4.2218   -0.5167   -0.3282 C   0  0  0  0  0  4           0  0  0
   -4.4348    0.5675    1.7918 C   0  0  0  0  0  4           0  0  0
    4.0853    1.1397    7.2541 C   0  0  0  0  0  4           0  0  0
    4.0109   -1.2725    7.1692 C   0  0  0  0  0  4           0  0  0
   -2.8273   -0.5380   -0.1862 C   0  0  0  0  0  4           0  0  0
   -3.0421    0.5524    1.9448 C   0  0  0  0  0  4           0  0  0
    4.6246    1.0762    8.5404 C   0  0  0  0  0  4           0  0  0
    4.5498   -1.3341    8.4554 C   0  0  0  0  0  4           0  0  0
    4.8578   -0.1601    9.1399 C   0  0  0  0  0  4           0  0  0
    3.1803    0.0315    5.1756 C   0  0  2  0  0  4           0  0  0
   -0.7592    0.0000    1.1511 C   0  0  0  0  0  4           0  0  0
    4.2583    0.0168    4.1132 C   0  0  0  0  0  4           0  0  0
    4.5778    0.0126    1.5794 C   0  0  0  0  0  4           0  0  0
    2.2697    0.0003    2.5765 C   0  0  0  0  0  4           0  0  0
   -7.2818   -0.0111    1.7065 C   0  0  0  0  0  4           0  0  0
   -7.0193    0.6918   -0.6771 C   0  0  0  0  0  4           0  0  0
   -8.6998   -0.4697    1.3614 C   0  0  0  0  0  4           0  0  0
   -8.4481    0.2048   -0.9243 C   0  0  0  0  0  4           0  0  0
  -10.6506   -0.0486    0.0133 C   0  0  0  0  0  4           0  0  0
  1 25  1  0     0  0
  2 26  2  0     0  0
  3 27  2  0     0  0
  4  5  1  0     0  0
  4 11  1  0     0  0
  5 10  2  0     0  0
  6 12  1  0     0  0
  6 30  1  0     0  0
  6 31  1  0     0  0
  7 10  1  0     0  0
  7 26  1  0     0  0
  8 27  1  0     0  0
  8 28  1  0     0  0
  8 29  1  0     0  0
  9 32  1  0     0  0
  9 33  1  0     0  0
  9 34  1  0     0  0
 10 13  1  0     0  0
 11 13  2  0     0  0
 11 28  1  0     0  0
 12 16  2  0     0  0
 12 17  1  0     0  0
 13 29  1  0     0  0
 14 18  2  0     0  0
 14 19  1  0     0  0
 14 25  1  0     0  0
 15 20  2  0     0  0
 15 21  1  0     0  0
 15 26  1  0     0  0
 16 20  1  0     0  0
 17 21  2  0     0  0
 18 22  1  0     0  0
 19 23  2  0     0  0
 22 24  2  0     0  0
 23 24  1  0     0  0
 25 27  1  0     0  0
 30 32  1  0     0  0
 31 33  1  0     0  0
M  END
> <standard_type>
pIC50

> <# Confs.>
25

> <canonical_smiles>
O=C(N1CC(C(NC(C2=CC=C(N3CCN(C)CC3)C=C2)=O)=NN4)=C4C1)[C@H](F)C5=CC=CC=C5

> <standard_relation>
=

> <Publication_ID>
nan

> <predicted_activity_value>
6.292429823902063

> <actual_activity_value>
6.522878745280337

> <Compound>
15

> <standard_units>
nM

> hash
7649752598964339451

$$$$
14
XXILIB    08252103493D 0   0.00000     0.00000

 34 38  0     1  0            999 V2000
    2.4002    1.1425    5.0130 F   0  0  0  0  0  1           0  0  0
   -0.3116    0.0000    2.2959 O   0  0  0  0  0  2           0  0  0
    5.4534    0.0278    4.4054 O   0  0  0  0  0  2           0  0  0
    3.3931    0.0019   -0.7454 N   0  0  0  0  0  3           0  0  0
    2.0987    0.0000   -1.1466 N   0  0  0  0  0  3           0  0  0
   -6.4390   -0.0657    0.5075 N   0  0  1  0  0  3           0  0  0
    0.0000    0.0000    0.0000 N   0  0  0  0  0  3           0  0  0
    3.7470    0.0090    2.8269 N   0  0  2  0  0  3           0  0  0
   -9.2925   -0.0159    0.4635 N   0  0  1  0  0  3           0  0  0
    1.3840   -0.0000    0.0000 C   0  0  0  0  0  4           0  0  0
    3.5006    0.0061    0.5950 C   0  0  0  0  0  4           0  0  0
   -5.0666   -0.0447    0.6547 C   0  0  0  0  0  4           0  0  0
    2.2422    0.0013    1.1104 C   0  0  0  0  0  4           0  0  0
    3.7790   -0.0344    6.5532 C   0  0  0  0  0  4           0  0  0
   -2.2291   -0.0022    0.9550 C   0  0  0  0  0  4           0  0  0
   -4.2237    0.5099   -0.3262 C   0  0  0  0  0  4           0  0  0
   -4.4333   -0.5755    1.7934 C   0  0  0  0  0  4           0  0  0
    4.0853    1.1397    7.2541 C   0  0  0  0  0  4           0  0  0
    4.0109   -1.2725    7.1692 C   0  0  0  0  0  4           0  0  0
   -2.8291    0.5336   -0.1852 C   0  0  0  0  0  4           0  0  0
   -3.0405   -0.5573    1.9458 C   0  0  0  0  0  4           0  0  0
    4.6246    1.0762    8.5404 C   0  0  0  0  0  4           0  0  0
    4.5498   -1.3341    8.4554 C   0  0  0  0  0  4           0  0  0
    4.8578   -0.1601    9.1399 C   0  0  0  0  0  4           0  0  0
    3.1803    0.0315    5.1756 C   0  0  2  0  0  4           0  0  0
   -0.7592    0.0000    1.1511 C   0  0  0  0  0  4           0  0  0
    4.2583    0.0168    4.1132 C   0  0  0  0  0  4           0  0  0
    4.5778    0.0126    1.5794 C   0  0  0  0  0  4           0  0  0
    2.2697    0.0003    2.5765 C   0  0  0  0  0  4           0  0  0
   -7.2030   -1.1534    1.1283 C   0  0  0  0  0  4           0  0  0
   -7.1487    1.1992    0.2877 C   0  0  0  0  0  4           0  0  0
   -8.5810   -1.2989    0.4803 C   0  0  0  0  0  4           0  0  0
   -8.5291    0.9574   -0.3254 C   0  0  0  0  0  4           0  0  0
  -10.6370   -0.1803   -0.0870 C   0  0  0  0  0  4           0  0  0
  1 25  1  0     0  0
  2 26  2  0     0  0
  3 27  2  0     0  0
  4  5  1  0     0  0
  4 11  1  0     0  0
  5 10  2  0     0  0
  6 12  1  0     0  0
  6 30  1  0     0  0
  6 31  1  0     0  0
  7 10  1  0     0  0
  7 26  1  0     0  0
  8 27  1  0     0  0
  8 28  1  0     0  0
  8 29  1  0     0  0
  9 32  1  0     0  0
  9 33  1  0     0  0
  9 34  1  0     0  0
 10 13  1  0     0  0
 11 13  2  0     0  0
 11 28  1  0     0  0
 12 16  2  0     0  0
 12 17  1  0     0  0
 13 29  1  0     0  0
 14 18  2  0     0  0
 14 19  1  0     0  0
 14 25  1  0     0  0
 15 20  2  0     0  0
 15 21  1  0     0  0
 15 26  1  0     0  0
 16 20  1  0     0  0
 17 21  2  0     0  0
 18 22  1  0     0  0
 19 23  2  0     0  0
 22 24  2  0     0  0
 23 24  1  0     0  0
 25 27  1  0     0  0
 30 32  1  0     0  0
 31 33  1  0     0  0
M  END
> <standard_type>
pIC50

> <# Confs.>
25

> <canonical_smiles>
O=C(N1CC(C(NC(C2=CC=C(N3CCN(C)CC3)C=C2)=O)=NN4)=C4C1)[C@H](F)C5=CC=CC=C5

> <standard_relation>
=

> <Publication_ID>
nan

> <predicted_activity_value>
6.292429823902063

> <actual_activity_value>
6.522878745280337

> <Compound>
15

> <standard_units>
nM

> hash
7649752598964339451

$$$$
14
XXILIB    08252103493D 0   0.00000     0.00000

 34 38  0     1  0            999 V2000
    6.2318   -1.1070    3.5036 F   0  0  0  0  0  1           0  0  0
   -0.3116    0.0000    2.2959 O   0  0  0  0  0  2           0  0  0
    3.5901    0.0140    5.1462 O   0  0  0  0  0  2           0  0  0
    3.3931    0.0019   -0.7454 N   0  0  0  0  0  3           0  0  0
    2.0987    0.0000   -1.1466 N   0  0  0  0  0  3           0  0  0
   -6.4391    0.0492    0.5071 N   0  0  1  0  0  3           0  0  0
    0.0000    0.0000    0.0000 N   0  0  0  0  0  3           0  0  0
    3.7470    0.0090    2.8269 N   0  0  2  0  0  3           0  0  0
   -8.9512   -0.6525    1.6270 N   0  0  1  0  0  3           0  0  0
    1.3840    0.0000   -0.0000 C   0  0  0  0  0  4           0  0  0
    3.5006    0.0061    0.5950 C   0  0  0  0  0  4           0  0  0
   -5.0666    0.0337    0.6537 C   0  0  0  0  0  4           0  0  0
    2.2422    0.0013    1.1104 C   0  0  0  0  0  4           0  0  0
    6.2817    0.0918    5.5576 C   0  0  0  0  0  4           0  0  0
   -2.2291   -0.0022    0.9550 C   0  0  0  0  0  4           0  0  0
   -4.2218   -0.5167   -0.3282 C   0  0  0  0  0  4           0  0  0
   -4.4348    0.5675    1.7918 C   0  0  0  0  0  4           0  0  0
    6.5452   -1.0736    6.2897 C   0  0  0  0  0  4           0  0  0
    6.5309    1.3373    6.1515 C   0  0  0  0  0  4           0  0  0
   -2.8273   -0.5380   -0.1862 C   0  0  0  0  0  4           0  0  0
   -3.0421    0.5524    1.9448 C   0  0  0  0  0  4           0  0  0
    7.0359   -0.9943    7.5945 C   0  0  0  0  0  4           0  0  0
    7.0218    1.4147    7.4559 C   0  0  0  0  0  4           0  0  0
    7.2727    0.2493    8.1774 C   0  0  0  0  0  4           0  0  0
    5.7716    0.0089    4.1457 C   0  0  2  0  0  4           0  0  0
   -0.7592    0.0000    1.1511 C   0  0  0  0  0  4           0  0  0
    4.2583    0.0168    4.1132 C   0  0  0  0  0  4           0  0  0
    4.5778    0.0126    1.5794 C   0  0  0  0  0  4           0  0  0
    2.2697    0.0003    2.5765 C   0  0  0  0  0  4           0  0  0
   -7.2787    1.0936    1.0950 C   0  0  0  0  0  4           0  0  0
   -7.1821   -1.0811   -0.0516 C   0  0  0  0  0  4           0  0  0
   -8.1658    0.4657    2.1757 C   0  0  0  0  0  4           0  0  0
   -8.0724   -1.6800    1.0432 C   0  0  0  0  0  4           0  0  0
   -9.8066   -1.2351    2.6602 C   0  0  0  0  0  4           0  0  0
  1 25  1  0     0  0
  2 26  2  0     0  0
  3 27  2  0     0  0
  4  5  1  0     0  0
  4 11  1  0     0  0
  5 10  2  0     0  0
  6 12  1  0     0  0
  6 30  1  0     0  0
  6 31  1  0     0  0
  7 10  1  0     0  0
  7 26  1  0     0  0
  8 27  1  0     0  0
  8 28  1  0     0  0
  8 29  1  0     0  0
  9 32  1  0     0  0
  9 33  1  0     0  0
  9 34  1  0     0  0
 10 13  1  0     0  0
 11 13  2  0     0  0
 11 28  1  0     0  0
 12 16  2  0     0  0
 12 17  1  0     0  0
 13 29  1  0     0  0
 14 18  2  0     0  0
 14 19  1  0     0  0
 14 25  1  0     0  0
 15 20  2  0     0  0
 15 21  1  0     0  0
 15 26  1  0     0  0
 16 20  1  0     0  0
 17 21  2  0     0  0
 18 22  1  0     0  0
 19 23  2  0     0  0
 22 24  2  0     0  0
 23 24  1  0     0  0
 25 27  1  0     0  0
 30 32  1  0     0  0
 31 33  1  0     0  0
M  END
> <standard_type>
pIC50

> <# Confs.>
25

> <canonical_smiles>
O=C(N1CC(C(NC(C2=CC=C(N3CCN(C)CC3)C=C2)=O)=NN4)=C4C1)[C@H](F)C5=CC=CC=C5

> <standard_relation>
=

> <Publication_ID>
nan

> <predicted_activity_value>
6.292429823902063

> <actual_activity_value>
6.522878745280337

> <Compound>
15

> <standard_units>
nM

> hash
7649752598964339451

$$$$
14
XXILIB    08252103493D 0   0.00000     0.00000

 34 38  0     1  0            999 V2000
    6.2318   -1.1070    3.5036 F   0  0  0  0  0  1           0  0  0
   -0.3116    0.0000    2.2959 O   0  0  0  0  0  2           0  0  0
    3.5901    0.0140    5.1462 O   0  0  0  0  0  2           0  0  0
    3.3931    0.0019   -0.7454 N   0  0  0  0  0  3           0  0  0
    2.0987    0.0000   -1.1466 N   0  0  0  0  0  3           0  0  0
   -6.4390   -0.0657    0.5075 N   0  0  1  0  0  3           0  0  0
    0.0000    0.0000    0.0000 N   0  0  0  0  0  3           0  0  0
    3.7470    0.0090    2.8269 N   0  0  2  0  0  3           0  0  0
   -8.7965   -1.6463    0.4785 N   0  0  1  0  0  3           0  0  0
    1.3840    0.0000   -0.0000 C   0  0  0  0  0  4           0  0  0
    3.5006    0.0061    0.5950 C   0  0  0  0  0  4           0  0  0
   -5.0666   -0.0447    0.6547 C   0  0  0  0  0  4           0  0  0
    2.2422    0.0013    1.1104 C   0  0  0  0  0  4           0  0  0
    6.2817    0.0918    5.5576 C   0  0  0  0  0  4           0  0  0
   -2.2291   -0.0022    0.9550 C   0  0  0  0  0  4           0  0  0
   -4.2237    0.5099   -0.3262 C   0  0  0  0  0  4           0  0  0
   -4.4333   -0.5755    1.7934 C   0  0  0  0  0  4           0  0  0
    6.5452   -1.0736    6.2897 C   0  0  0  0  0  4           0  0  0
    6.5309    1.3373    6.1515 C   0  0  0  0  0  4           0  0  0
   -2.8291    0.5336   -0.1852 C   0  0  0  0  0  4           0  0  0
   -3.0405   -0.5573    1.9458 C   0  0  0  0  0  4           0  0  0
    7.0359   -0.9943    7.5945 C   0  0  0  0  0  4           0  0  0
    7.0218    1.4147    7.4559 C   0  0  0  0  0  4           0  0  0
    7.2727    0.2493    8.1774 C   0  0  0  0  0  4           0  0  0
    5.7716    0.0089    4.1457 C   0  0  2  0  0  4           0  0  0
   -0.7592    0.0000    1.1511 C   0  0  0  0  0  4           0  0  0
    4.2583    0.0168    4.1132 C   0  0  0  0  0  4           0  0  0
    4.5778    0.0126    1.5794 C   0  0  0  0  0  4           0  0  0
    2.2697    0.0003    2.5765 C   0  0  0  0  0  4           0  0  0
   -7.3511   -0.0135    1.6506 C   0  0  0  0  0  4           0  0  0
   -7.0873   -0.3620   -0.7706 C   0  0  0  0  0  4           0  0  0
   -8.1053   -1.3445    1.7432 C   0  0  0  0  0  4           0  0  0
   -7.8470   -1.6876   -0.6465 C   0  0  0  0  0  4           0  0  0
   -9.5267   -2.9092    0.5808 C   0  0  0  0  0  4           0  0  0
  1 25  1  0     0  0
  2 26  2  0     0  0
  3 27  2  0     0  0
  4  5  1  0     0  0
  4 11  1  0     0  0
  5 10  2  0     0  0
  6 12  1  0     0  0
  6 30  1  0     0  0
  6 31  1  0     0  0
  7 10  1  0     0  0
  7 26  1  0     0  0
  8 27  1  0     0  0
  8 28  1  0     0  0
  8 29  1  0     0  0
  9 32  1  0     0  0
  9 33  1  0     0  0
  9 34  1  0     0  0
 10 13  1  0     0  0
 11 13  2  0     0  0
 11 28  1  0     0  0
 12 16  2  0     0  0
 12 17  1  0     0  0
 13 29  1  0     0  0
 14 18  2  0     0  0
 14 19  1  0     0  0
 14 25  1  0     0  0
 15 20  2  0     0  0
 15 21  1  0     0  0
 15 26  1  0     0  0
 16 20  1  0     0  0
 17 21  2  0     0  0
 18 22  1  0     0  0
 19 23  2  0     0  0
 22 24  2  0     0  0
 23 24  1  0     0  0
 25 27  1  0     0  0
 30 32  1  0     0  0
 31 33  1  0     0  0
M  END
> <standard_type>
pIC50

> <# Confs.>
25

> <canonical_smiles>
O=C(N1CC(C(NC(C2=CC=C(N3CCN(C)CC3)C=C2)=O)=NN4)=C4C1)[C@H](F)C5=CC=CC=C5

> <standard_relation>
=

> <Publication_ID>
nan

> <predicted_activity_value>
6.292429823902063

> <actual_activity_value>
6.522878745280337

> <Compound>
15

> <standard_units>
nM

> hash
7649752598964339451

$$$$
14
XXILIB    08252103493D 0   0.00000     0.00000

 34 38  0     1  0            999 V2000
    2.4002    1.1425    5.0130 F   0  0  0  0  0  1           0  0  0
   -0.3116    0.0000    2.2959 O   0  0  0  0  0  2           0  0  0
    5.4534    0.0278    4.4054 O   0  0  0  0  0  2           0  0  0
    3.3931    0.0019   -0.7454 N   0  0  0  0  0  3           0  0  0
    2.0987    0.0000   -1.1466 N   0  0  0  0  0  3           0  0  0
   -6.4391    0.0492    0.5071 N   0  0  1  0  0  3           0  0  0
    0.0000    0.0000    0.0000 N   0  0  0  0  0  3           0  0  0
    3.7470    0.0090    2.8269 N   0  0  2  0  0  3           0  0  0
   -8.9512   -0.6525    1.6270 N   0  0  1  0  0  3           0  0  0
    1.3840   -0.0000    0.0000 C   0  0  0  0  0  4           0  0  0
    3.5006    0.0061    0.5950 C   0  0  0  0  0  4           0  0  0
   -5.0666    0.0337    0.6537 C   0  0  0  0  0  4           0  0  0
    2.2422    0.0013    1.1104 C   0  0  0  0  0  4           0  0  0
    3.7790   -0.0344    6.5532 C   0  0  0  0  0  4           0  0  0
   -2.2291   -0.0022    0.9550 C   0  0  0  0  0  4           0  0  0
   -4.2218   -0.5167   -0.3282 C   0  0  0  0  0  4           0  0  0
   -4.4348    0.5675    1.7918 C   0  0  0  0  0  4           0  0  0
    4.0853    1.1397    7.2541 C   0  0  0  0  0  4           0  0  0
    4.0109   -1.2725    7.1692 C   0  0  0  0  0  4           0  0  0
   -2.8273   -0.5380   -0.1862 C   0  0  0  0  0  4           0  0  0
   -3.0421    0.5524    1.9448 C   0  0  0  0  0  4           0  0  0
    4.6246    1.0762    8.5404 C   0  0  0  0  0  4           0  0  0
    4.5498   -1.3341    8.4554 C   0  0  0  0  0  4           0  0  0
    4.8578   -0.1601    9.1399 C   0  0  0  0  0  4           0  0  0
    3.1803    0.0315    5.1756 C   0  0  2  0  0  4           0  0  0
   -0.7592    0.0000    1.1511 C   0  0  0  0  0  4           0  0  0
    4.2583    0.0168    4.1132 C   0  0  0  0  0  4           0  0  0
    4.5778    0.0126    1.5794 C   0  0  0  0  0  4           0  0  0
    2.2697    0.0003    2.5765 C   0  0  0  0  0  4           0  0  0
   -7.2787    1.0936    1.0950 C   0  0  0  0  0  4           0  0  0
   -7.1821   -1.0811   -0.0516 C   0  0  0  0  0  4           0  0  0
   -8.1658    0.4657    2.1757 C   0  0  0  0  0  4           0  0  0
   -8.0724   -1.6800    1.0432 C   0  0  0  0  0  4           0  0  0
   -9.8066   -1.2351    2.6602 C   0  0  0  0  0  4           0  0  0
  1 25  1  0     0  0
  2 26  2  0     0  0
  3 27  2  0     0  0
  4  5  1  0     0  0
  4 11  1  0     0  0
  5 10  2  0     0  0
  6 12  1  0     0  0
  6 30  1  0     0  0
  6 31  1  0     0  0
  7 10  1  0     0  0
  7 26  1  0     0  0
  8 27  1  0     0  0
  8 28  1  0     0  0
  8 29  1  0     0  0
  9 32  1  0     0  0
  9 33  1  0     0  0
  9 34  1  0     0  0
 10 13  1  0     0  0
 11 13  2  0     0  0
 11 28  1  0     0  0
 12 16  2  0     0  0
 12 17  1  0     0  0
 13 29  1  0     0  0
 14 18  2  0     0  0
 14 19  1  0     0  0
 14 25  1  0     0  0
 15 20  2  0     0  0
 15 21  1  0     0  0
 15 26  1  0     0  0
 16 20  1  0     0  0
 17 21  2  0     0  0
 18 22  1  0     0  0
 19 23  2  0     0  0
 22 24  2  0     0  0
 23 24  1  0     0  0
 25 27  1  0     0  0
 30 32  1  0     0  0
 31 33  1  0     0  0
M  END
> <standard_type>
pIC50

> <# Confs.>
25

> <canonical_smiles>
O=C(N1CC(C(NC(C2=CC=C(N3CCN(C)CC3)C=C2)=O)=NN4)=C4C1)[C@H](F)C5=CC=CC=C5

> <standard_relation>
=

> <Publication_ID>
nan

> <predicted_activity_value>
6.292429823902063

> <actual_activity_value>
6.522878745280337

> <Compound>
15

> <standard_units>
nM

> hash
7649752598964339451

$$$$
14
XXILIB    08252103493D 0   0.00000     0.00000

 34 38  0     1  0            999 V2000
    6.2318   -1.1070    3.5036 F   0  0  0  0  0  1           0  0  0
   -0.3116    0.0000    2.2959 O   0  0  0  0  0  2           0  0  0
    3.5901    0.0140    5.1462 O   0  0  0  0  0  2           0  0  0
    3.3931    0.0019   -0.7454 N   0  0  0  0  0  3           0  0  0
    2.0987    0.0000   -1.1466 N   0  0  0  0  0  3           0  0  0
   -6.4390   -0.0657    0.5075 N   0  0  1  0  0  3           0  0  0
    0.0000    0.0000    0.0000 N   0  0  0  0  0  3           0  0  0
    3.7470    0.0090    2.8269 N   0  0  2  0  0  3           0  0  0
   -8.7717    0.6459    1.9607 N   0  0  1  0  0  3           0  0  0
    1.3840    0.0000   -0.0000 C   0  0  0  0  0  4           0  0  0
    3.5006    0.0061    0.5950 C   0  0  0  0  0  4           0  0  0
   -5.0666   -0.0447    0.6547 C   0  0  0  0  0  4           0  0  0
    2.2422    0.0013    1.1104 C   0  0  0  0  0  4           0  0  0
    6.2817    0.0918    5.5576 C   0  0  0  0  0  4           0  0  0
   -2.2291   -0.0022    0.9550 C   0  0  0  0  0  4           0  0  0
   -4.2237    0.5099   -0.3262 C   0  0  0  0  0  4           0  0  0
   -4.4333   -0.5755    1.7934 C   0  0  0  0  0  4           0  0  0
    6.5452   -1.0736    6.2897 C   0  0  0  0  0  4           0  0  0
    6.5309    1.3373    6.1515 C   0  0  0  0  0  4           0  0  0
   -2.8291    0.5336   -0.1852 C   0  0  0  0  0  4           0  0  0
   -3.0405   -0.5573    1.9458 C   0  0  0  0  0  4           0  0  0
    7.0359   -0.9943    7.5945 C   0  0  0  0  0  4           0  0  0
    7.0218    1.4147    7.4559 C   0  0  0  0  0  4           0  0  0
    7.2727    0.2493    8.1774 C   0  0  0  0  0  4           0  0  0
    5.7716    0.0089    4.1457 C   0  0  2  0  0  4           0  0  0
   -0.7592    0.0000    1.1511 C   0  0  0  0  0  4           0  0  0
    4.2583    0.0168    4.1132 C   0  0  0  0  0  4           0  0  0
    4.5778    0.0126    1.5794 C   0  0  0  0  0  4           0  0  0
    2.2697    0.0003    2.5765 C   0  0  0  0  0  4           0  0  0
   -7.2637   -1.1202    1.0995 C   0  0  0  0  0  4           0  0  0
   -7.1928    1.1259    0.1135 C   0  0  0  0  0  4           0  0  0
   -7.9889   -0.5487    2.3238 C   0  0  0  0  0  4           0  0  0
   -7.9188    1.6784    1.3460 C   0  0  0  0  0  4           0  0  0
   -9.4623    1.1839    3.1320 C   0  0  0  0  0  4           0  0  0
  1 25  1  0     0  0
  2 26  2  0     0  0
  3 27  2  0     0  0
  4  5  1  0     0  0
  4 11  1  0     0  0
  5 10  2  0     0  0
  6 12  1  0     0  0
  6 30  1  0     0  0
  6 31  1  0     0  0
  7 10  1  0     0  0
  7 26  1  0     0  0
  8 27  1  0     0  0
  8 28  1  0     0  0
  8 29  1  0     0  0
  9 32  1  0     0  0
  9 33  1  0     0  0
  9 34  1  0     0  0
 10 13  1  0     0  0
 11 13  2  0     0  0
 11 28  1  0     0  0
 12 16  2  0     0  0
 12 17  1  0     0  0
 13 29  1  0     0  0
 14 18  2  0     0  0
 14 19  1  0     0  0
 14 25  1  0     0  0
 15 20  2  0     0  0
 15 21  1  0     0  0
 15 26  1  0     0  0
 16 20  1  0     0  0
 17 21  2  0     0  0
 18 22  1  0     0  0
 19 23  2  0     0  0
 22 24  2  0     0  0
 23 24  1  0     0  0
 25 27  1  0     0  0
 30 32  1  0     0  0
 31 33  1  0     0  0
M  END
> <standard_type>
pIC50

> <# Confs.>
25

> <canonical_smiles>
O=C(N1CC(C(NC(C2=CC=C(N3CCN(C)CC3)C=C2)=O)=NN4)=C4C1)[C@H](F)C5=CC=CC=C5

> <standard_relation>
=

> <Publication_ID>
nan

> <predicted_activity_value>
6.292429823902063

> <actual_activity_value>
6.522878745280337

> <Compound>
15

> <standard_units>
nM

> hash
7649752598964339451

$$$$
14
XXILIB    08252103493D 0   0.00000     0.00000

 34 38  0     1  0            999 V2000
    2.4002    1.1425    5.0130 F   0  0  0  0  0  1           0  0  0
   -0.3116    0.0000    2.2959 O   0  0  0  0  0  2           0  0  0
    5.4534    0.0278    4.4054 O   0  0  0  0  0  2           0  0  0
    3.3931    0.0019   -0.7454 N   0  0  0  0  0  3           0  0  0
    2.0987    0.0000   -1.1466 N   0  0  0  0  0  3           0  0  0
   -6.4390   -0.0657    0.5075 N   0  0  1  0  0  3           0  0  0
    0.0000    0.0000    0.0000 N   0  0  0  0  0  3           0  0  0
    3.7470    0.0090    2.8269 N   0  0  2  0  0  3           0  0  0
   -8.7965   -1.6463    0.4785 N   0  0  1  0  0  3           0  0  0
    1.3840   -0.0000    0.0000 C   0  0  0  0  0  4           0  0  0
    3.5006    0.0061    0.5950 C   0  0  0  0  0  4           0  0  0
   -5.0666   -0.0447    0.6547 C   0  0  0  0  0  4           0  0  0
    2.2422    0.0013    1.1104 C   0  0  0  0  0  4           0  0  0
    3.7790   -0.0344    6.5532 C   0  0  0  0  0  4           0  0  0
   -2.2291   -0.0022    0.9550 C   0  0  0  0  0  4           0  0  0
   -4.2237    0.5099   -0.3262 C   0  0  0  0  0  4           0  0  0
   -4.4333   -0.5755    1.7934 C   0  0  0  0  0  4           0  0  0
    4.0853    1.1397    7.2541 C   0  0  0  0  0  4           0  0  0
    4.0109   -1.2725    7.1692 C   0  0  0  0  0  4           0  0  0
   -2.8291    0.5336   -0.1852 C   0  0  0  0  0  4           0  0  0
   -3.0405   -0.5573    1.9458 C   0  0  0  0  0  4           0  0  0
    4.6246    1.0762    8.5404 C   0  0  0  0  0  4           0  0  0
    4.5498   -1.3341    8.4554 C   0  0  0  0  0  4           0  0  0
    4.8578   -0.1601    9.1399 C   0  0  0  0  0  4           0  0  0
    3.1803    0.0315    5.1756 C   0  0  2  0  0  4           0  0  0
   -0.7592    0.0000    1.1511 C   0  0  0  0  0  4           0  0  0
    4.2583    0.0168    4.1132 C   0  0  0  0  0  4           0  0  0
    4.5778    0.0126    1.5794 C   0  0  0  0  0  4           0  0  0
    2.2697    0.0003    2.5765 C   0  0  0  0  0  4           0  0  0
   -7.3511   -0.0135    1.6506 C   0  0  0  0  0  4           0  0  0
   -7.0873   -0.3620   -0.7706 C   0  0  0  0  0  4           0  0  0
   -8.1053   -1.3445    1.7432 C   0  0  0  0  0  4           0  0  0
   -7.8470   -1.6876   -0.6465 C   0  0  0  0  0  4           0  0  0
   -9.5267   -2.9092    0.5808 C   0  0  0  0  0  4           0  0  0
  1 25  1  0     0  0
  2 26  2  0     0  0
  3 27  2  0     0  0
  4  5  1  0     0  0
  4 11  1  0     0  0
  5 10  2  0     0  0
  6 12  1  0     0  0
  6 30  1  0     0  0
  6 31  1  0     0  0
  7 10  1  0     0  0
  7 26  1  0     0  0
  8 27  1  0     0  0
  8 28  1  0     0  0
  8 29  1  0     0  0
  9 32  1  0     0  0
  9 33  1  0     0  0
  9 34  1  0     0  0
 10 13  1  0     0  0
 11 13  2  0     0  0
 11 28  1  0     0  0
 12 16  2  0     0  0
 12 17  1  0     0  0
 13 29  1  0     0  0
 14 18  2  0     0  0
 14 19  1  0     0  0
 14 25  1  0     0  0
 15 20  2  0     0  0
 15 21  1  0     0  0
 15 26  1  0     0  0
 16 20  1  0     0  0
 17 21  2  0     0  0
 18 22  1  0     0  0
 19 23  2  0     0  0
 22 24  2  0     0  0
 23 24  1  0     0  0
 25 27  1  0     0  0
 30 32  1  0     0  0
 31 33  1  0     0  0
M  END
> <standard_type>
pIC50

> <# Confs.>
25

> <canonical_smiles>
O=C(N1CC(C(NC(C2=CC=C(N3CCN(C)CC3)C=C2)=O)=NN4)=C4C1)[C@H](F)C5=CC=CC=C5

> <standard_relation>
=

> <Publication_ID>
nan

> <predicted_activity_value>
6.292429823902063

> <actual_activity_value>
6.522878745280337

> <Compound>
15

> <standard_units>
nM

> hash
7649752598964339451

$$$$
14
XXILIB    08252103493D 0   0.00000     0.00000

 34 38  0     1  0            999 V2000
    6.2318   -1.1070    3.5036 F   0  0  0  0  0  1           0  0  0
   -0.3116    0.0000    2.2959 O   0  0  0  0  0  2           0  0  0
    3.5901    0.0140    5.1462 O   0  0  0  0  0  2           0  0  0
    3.3931    0.0019   -0.7454 N   0  0  0  0  0  3           0  0  0
    2.0987    0.0000   -1.1466 N   0  0  0  0  0  3           0  0  0
   -6.4391    0.0492    0.5071 N   0  0  1  0  0  3           0  0  0
    0.0000    0.0000    0.0000 N   0  0  0  0  0  3           0  0  0
    3.7470    0.0090    2.8269 N   0  0  2  0  0  3           0  0  0
   -8.6018    1.8809    0.6723 N   0  0  1  0  0  3           0  0  0
    1.3840    0.0000   -0.0000 C   0  0  0  0  0  4           0  0  0
    3.5006    0.0061    0.5950 C   0  0  0  0  0  4           0  0  0
   -5.0666    0.0337    0.6537 C   0  0  0  0  0  4           0  0  0
    2.2422    0.0013    1.1104 C   0  0  0  0  0  4           0  0  0
    6.2817    0.0918    5.5576 C   0  0  0  0  0  4           0  0  0
   -2.2291   -0.0022    0.9550 C   0  0  0  0  0  4           0  0  0
   -4.2218   -0.5167   -0.3282 C   0  0  0  0  0  4           0  0  0
   -4.4348    0.5675    1.7918 C   0  0  0  0  0  4           0  0  0
    6.5452   -1.0736    6.2897 C   0  0  0  0  0  4           0  0  0
    6.5309    1.3373    6.1515 C   0  0  0  0  0  4           0  0  0
   -2.8273   -0.5380   -0.1862 C   0  0  0  0  0  4           0  0  0
   -3.0421    0.5524    1.9448 C   0  0  0  0  0  4           0  0  0
    7.0359   -0.9943    7.5945 C   0  0  0  0  0  4           0  0  0
    7.0218    1.4147    7.4559 C   0  0  0  0  0  4           0  0  0
    7.2727    0.2493    8.1774 C   0  0  0  0  0  4           0  0  0
    5.7716    0.0089    4.1457 C   0  0  2  0  0  4           0  0  0
   -0.7592    0.0000    1.1511 C   0  0  0  0  0  4           0  0  0
    4.2583    0.0168    4.1132 C   0  0  0  0  0  4           0  0  0
    4.5778    0.0126    1.5794 C   0  0  0  0  0  4           0  0  0
    2.2697    0.0003    2.5765 C   0  0  0  0  0  4           0  0  0
   -7.3400   -0.0082    1.6593 C   0  0  0  0  0  4           0  0  0
   -7.0802    0.5137   -0.7244 C   0  0  0  0  0  4           0  0  0
   -7.9340    1.3868    1.8894 C   0  0  0  0  0  4           0  0  0
   -7.6764    1.9041   -0.4742 C   0  0  0  0  0  4           0  0  0
   -9.1677    3.2099    0.8997 C   0  0  0  0  0  4           0  0  0
  1 25  1  0     0  0
  2 26  2  0     0  0
  3 27  2  0     0  0
  4  5  1  0     0  0
  4 11  1  0     0  0
  5 10  2  0     0  0
  6 12  1  0     0  0
  6 30  1  0     0  0
  6 31  1  0     0  0
  7 10  1  0     0  0
  7 26  1  0     0  0
  8 27  1  0     0  0
  8 28  1  0     0  0
  8 29  1  0     0  0
  9 32  1  0     0  0
  9 33  1  0     0  0
  9 34  1  0     0  0
 10 13  1  0     0  0
 11 13  2  0     0  0
 11 28  1  0     0  0
 12 16  2  0     0  0
 12 17  1  0     0  0
 13 29  1  0     0  0
 14 18  2  0     0  0
 14 19  1  0     0  0
 14 25  1  0     0  0
 15 20  2  0     0  0
 15 21  1  0     0  0
 15 26  1  0     0  0
 16 20  1  0     0  0
 17 21  2  0     0  0
 18 22  1  0     0  0
 19 23  2  0     0  0
 22 24  2  0     0  0
 23 24  1  0     0  0
 25 27  1  0     0  0
 30 32  1  0     0  0
 31 33  1  0     0  0
M  END
> <standard_type>
pIC50

> <# Confs.>
25

> <canonical_smiles>
O=C(N1CC(C(NC(C2=CC=C(N3CCN(C)CC3)C=C2)=O)=NN4)=C4C1)[C@H](F)C5=CC=CC=C5

> <standard_relation>
=

> <Publication_ID>
nan

> <predicted_activity_value>
6.292429823902063

> <actual_activity_value>
6.522878745280337

> <Compound>
15

> <standard_units>
nM

> hash
7649752598964339451

$$$$
14
XXILIB    08252103493D 0   0.00000     0.00000

 34 38  0     1  0            999 V2000
    2.4002    1.1425    5.0130 F   0  0  0  0  0  1           0  0  0
   -0.3116    0.0000    2.2959 O   0  0  0  0  0  2           0  0  0
    5.4534    0.0278    4.4054 O   0  0  0  0  0  2           0  0  0
    3.3931    0.0019   -0.7454 N   0  0  0  0  0  3           0  0  0
    2.0987    0.0000   -1.1466 N   0  0  0  0  0  3           0  0  0
   -6.4390   -0.0657    0.5075 N   0  0  1  0  0  3           0  0  0
    0.0000    0.0000    0.0000 N   0  0  0  0  0  3           0  0  0
    3.7470    0.0090    2.8269 N   0  0  2  0  0  3           0  0  0
   -8.7717    0.6459    1.9607 N   0  0  1  0  0  3           0  0  0
    1.3840   -0.0000    0.0000 C   0  0  0  0  0  4           0  0  0
    3.5006    0.0061    0.5950 C   0  0  0  0  0  4           0  0  0
   -5.0666   -0.0447    0.6547 C   0  0  0  0  0  4           0  0  0
    2.2422    0.0013    1.1104 C   0  0  0  0  0  4           0  0  0
    3.7790   -0.0344    6.5532 C   0  0  0  0  0  4           0  0  0
   -2.2291   -0.0022    0.9550 C   0  0  0  0  0  4           0  0  0
   -4.2237    0.5099   -0.3262 C   0  0  0  0  0  4           0  0  0
   -4.4333   -0.5755    1.7934 C   0  0  0  0  0  4           0  0  0
    4.0853    1.1397    7.2541 C   0  0  0  0  0  4           0  0  0
    4.0109   -1.2725    7.1692 C   0  0  0  0  0  4           0  0  0
   -2.8291    0.5336   -0.1852 C   0  0  0  0  0  4           0  0  0
   -3.0405   -0.5573    1.9458 C   0  0  0  0  0  4           0  0  0
    4.6246    1.0762    8.5404 C   0  0  0  0  0  4           0  0  0
    4.5498   -1.3341    8.4554 C   0  0  0  0  0  4           0  0  0
    4.8578   -0.1601    9.1399 C   0  0  0  0  0  4           0  0  0
    3.1803    0.0315    5.1756 C   0  0  2  0  0  4           0  0  0
   -0.7592    0.0000    1.1511 C   0  0  0  0  0  4           0  0  0
    4.2583    0.0168    4.1132 C   0  0  0  0  0  4           0  0  0
    4.5778    0.0126    1.5794 C   0  0  0  0  0  4           0  0  0
    2.2697    0.0003    2.5765 C   0  0  0  0  0  4           0  0  0
   -7.2637   -1.1202    1.0995 C   0  0  0  0  0  4           0  0  0
   -7.1928    1.1259    0.1135 C   0  0  0  0  0  4           0  0  0
   -7.9889   -0.5487    2.3238 C   0  0  0  0  0  4           0  0  0
   -7.9188    1.6784    1.3460 C   0  0  0  0  0  4           0  0  0
   -9.4623    1.1839    3.1320 C   0  0  0  0  0  4           0  0  0
  1 25  1  0     0  0
  2 26  2  0     0  0
  3 27  2  0     0  0
  4  5  1  0     0  0
  4 11  1  0     0  0
  5 10  2  0     0  0
  6 12  1  0     0  0
  6 30  1  0     0  0
  6 31  1  0     0  0
  7 10  1  0     0  0
  7 26  1  0     0  0
  8 27  1  0     0  0
  8 28  1  0     0  0
  8 29  1  0     0  0
  9 32  1  0     0  0
  9 33  1  0     0  0
  9 34  1  0     0  0
 10 13  1  0     0  0
 11 13  2  0     0  0
 11 28  1  0     0  0
 12 16  2  0     0  0
 12 17  1  0     0  0
 13 29  1  0     0  0
 14 18  2  0     0  0
 14 19  1  0     0  0
 14 25  1  0     0  0
 15 20  2  0     0  0
 15 21  1  0     0  0
 15 26  1  0     0  0
 16 20  1  0     0  0
 17 21  2  0     0  0
 18 22  1  0     0  0
 19 23  2  0     0  0
 22 24  2  0     0  0
 23 24  1  0     0  0
 25 27  1  0     0  0
 30 32  1  0     0  0
 31 33  1  0     0  0
M  END
> <standard_type>
pIC50

> <# Confs.>
25

> <canonical_smiles>
O=C(N1CC(C(NC(C2=CC=C(N3CCN(C)CC3)C=C2)=O)=NN4)=C4C1)[C@H](F)C5=CC=CC=C5

> <standard_relation>
=

> <Publication_ID>
nan

> <predicted_activity_value>
6.292429823902063

> <actual_activity_value>
6.522878745280337

> <Compound>
15

> <standard_units>
nM

> hash
7649752598964339451

$$$$
14
XXILIB    08252103493D 0   0.00000     0.00000

 34 38  0     1  0            999 V2000
    2.4002    1.1425    5.0130 F   0  0  0  0  0  1           0  0  0
   -0.3116    0.0000    2.2959 O   0  0  0  0  0  2           0  0  0
    5.4534    0.0278    4.4054 O   0  0  0  0  0  2           0  0  0
    3.3931    0.0019   -0.7454 N   0  0  0  0  0  3           0  0  0
    2.0987    0.0000   -1.1466 N   0  0  0  0  0  3           0  0  0
   -6.4391    0.0492    0.5071 N   0  0  1  0  0  3           0  0  0
    0.0000    0.0000    0.0000 N   0  0  0  0  0  3           0  0  0
    3.7470    0.0090    2.8269 N   0  0  2  0  0  3           0  0  0
   -8.6018    1.8809    0.6723 N   0  0  1  0  0  3           0  0  0
    1.3840   -0.0000    0.0000 C   0  0  0  0  0  4           0  0  0
    3.5006    0.0061    0.5950 C   0  0  0  0  0  4           0  0  0
   -5.0666    0.0337    0.6537 C   0  0  0  0  0  4           0  0  0
    2.2422    0.0013    1.1104 C   0  0  0  0  0  4           0  0  0
    3.7790   -0.0344    6.5532 C   0  0  0  0  0  4           0  0  0
   -2.2291   -0.0022    0.9550 C   0  0  0  0  0  4           0  0  0
   -4.2218   -0.5167   -0.3282 C   0  0  0  0  0  4           0  0  0
   -4.4348    0.5675    1.7918 C   0  0  0  0  0  4           0  0  0
    4.0853    1.1397    7.2541 C   0  0  0  0  0  4           0  0  0
    4.0109   -1.2725    7.1692 C   0  0  0  0  0  4           0  0  0
   -2.8273   -0.5380   -0.1862 C   0  0  0  0  0  4           0  0  0
   -3.0421    0.5524    1.9448 C   0  0  0  0  0  4           0  0  0
    4.6246    1.0762    8.5404 C   0  0  0  0  0  4           0  0  0
    4.5498   -1.3341    8.4554 C   0  0  0  0  0  4           0  0  0
    4.8578   -0.1601    9.1399 C   0  0  0  0  0  4           0  0  0
    3.1803    0.0315    5.1756 C   0  0  2  0  0  4           0  0  0
   -0.7592    0.0000    1.1511 C   0  0  0  0  0  4           0  0  0
    4.2583    0.0168    4.1132 C   0  0  0  0  0  4           0  0  0
    4.5778    0.0126    1.5794 C   0  0  0  0  0  4           0  0  0
    2.2697    0.0003    2.5765 C   0  0  0  0  0  4           0  0  0
   -7.3400   -0.0082    1.6593 C   0  0  0  0  0  4           0  0  0
   -7.0802    0.5137   -0.7244 C   0  0  0  0  0  4           0  0  0
   -7.9340    1.3868    1.8894 C   0  0  0  0  0  4           0  0  0
   -7.6764    1.9041   -0.4742 C   0  0  0  0  0  4           0  0  0
   -9.1677    3.2099    0.8997 C   0  0  0  0  0  4           0  0  0
  1 25  1  0     0  0
  2 26  2  0     0  0
  3 27  2  0     0  0
  4  5  1  0     0  0
  4 11  1  0     0  0
  5 10  2  0     0  0
  6 12  1  0     0  0
  6 30  1  0     0  0
  6 31  1  0     0  0
  7 10  1  0     0  0
  7 26  1  0     0  0
  8 27  1  0     0  0
  8 28  1  0     0  0
  8 29  1  0     0  0
  9 32  1  0     0  0
  9 33  1  0     0  0
  9 34  1  0     0  0
 10 13  1  0     0  0
 11 13  2  0     0  0
 11 28  1  0     0  0
 12 16  2  0     0  0
 12 17  1  0     0  0
 13 29  1  0     0  0
 14 18  2  0     0  0
 14 19  1  0     0  0
 14 25  1  0     0  0
 15 20  2  0     0  0
 15 21  1  0     0  0
 15 26  1  0     0  0
 16 20  1  0     0  0
 17 21  2  0     0  0
 18 22  1  0     0  0
 19 23  2  0     0  0
 22 24  2  0     0  0
 23 24  1  0     0  0
 25 27  1  0     0  0
 30 32  1  0     0  0
 31 33  1  0     0  0
M  END
> <standard_type>
pIC50

> <# Confs.>
25

> <canonical_smiles>
O=C(N1CC(C(NC(C2=CC=C(N3CCN(C)CC3)C=C2)=O)=NN4)=C4C1)[C@H](F)C5=CC=CC=C5

> <standard_relation>
=

> <Publication_ID>
nan

> <predicted_activity_value>
6.292429823902063

> <actual_activity_value>
6.522878745280337

> <Compound>
15

> <standard_units>
nM

> hash
7649752598964339451

$$$$
14
XXILIB    08252103493D 0   0.00000     0.00000

 34 38  0     1  0            999 V2000
    6.2318   -1.1070    3.5036 F   0  0  0  0  0  1           0  0  0
   -0.3116    0.0000    2.2959 O   0  0  0  0  0  2           0  0  0
    3.5901    0.0140    5.1462 O   0  0  0  0  0  2           0  0  0
    3.3931    0.0019   -0.7454 N   0  0  0  0  0  3           0  0  0
    2.0987    0.0000   -1.1466 N   0  0  0  0  0  3           0  0  0
   -6.4092   -0.0665    0.2841 N   0  0  1  0  0  3           0  0  0
    0.0000    0.0000    0.0000 N   0  0  0  0  0  3           0  0  0
    3.7470    0.0090    2.8269 N   0  0  2  0  0  3           0  0  0
   -9.1731   -0.0290   -0.4272 N   0  0  1  0  0  3           0  0  0
    1.3840    0.0000   -0.0000 C   0  0  0  0  0  4           0  0  0
    3.5006    0.0061    0.5950 C   0  0  0  0  0  4           0  0  0
   -5.0463   -0.0468    0.5023 C   0  0  0  0  0  4           0  0  0
    2.2422    0.0013    1.1104 C   0  0  0  0  0  4           0  0  0
    6.2817    0.0918    5.5576 C   0  0  0  0  0  4           0  0  0
   -2.2291   -0.0022    0.9550 C   0  0  0  0  0  4           0  0  0
   -4.4900    0.5057    1.6710 C   0  0  0  0  0  4           0  0  0
   -4.1367   -0.5782   -0.4302 C   0  0  0  0  0  4           0  0  0
    6.5452   -1.0736    6.2897 C   0  0  0  0  0  4           0  0  0
    6.5309    1.3373    6.1515 C   0  0  0  0  0  4           0  0  0
   -3.1071    0.5312    1.8994 C   0  0  0  0  0  4           0  0  0
   -2.7526   -0.5589   -0.2129 C   0  0  0  0  0  4           0  0  0
    7.0359   -0.9943    7.5945 C   0  0  0  0  0  4           0  0  0
    7.0218    1.4147    7.4559 C   0  0  0  0  0  4           0  0  0
    7.2727    0.2493    8.1774 C   0  0  0  0  0  4           0  0  0
    5.7716    0.0089    4.1457 C   0  0  2  0  0  4           0  0  0
   -0.7592   -0.0000    1.1511 C   0  0  0  0  0  4           0  0  0
    4.2583    0.0168    4.1132 C   0  0  0  0  0  4           0  0  0
    4.5778    0.0126    1.5794 C   0  0  0  0  0  4           0  0  0
    2.2697    0.0003    2.5765 C   0  0  0  0  0  4           0  0  0
   -7.1390    1.2053    0.2364 C   0  0  0  0  0  4           0  0  0
   -6.9939   -1.1924   -0.4524 C   0  0  0  0  0  4           0  0  0
   -8.6344    0.9922    0.4780 C   0  0  0  0  0  4           0  0  0
   -8.4953   -1.3070   -0.1831 C   0  0  0  0  0  4           0  0  0
  -10.6166   -0.1708   -0.2422 C   0  0  0  0  0  4           0  0  0
  1 25  1  0     0  0
  2 26  2  0     0  0
  3 27  2  0     0  0
  4  5  1  0     0  0
  4 11  1  0     0  0
  5 10  2  0     0  0
  6 12  1  0     0  0
  6 30  1  0     0  0
  6 31  1  0     0  0
  7 10  1  0     0  0
  7 26  1  0     0  0
  8 27  1  0     0  0
  8 28  1  0     0  0
  8 29  1  0     0  0
  9 32  1  0     0  0
  9 33  1  0     0  0
  9 34  1  0     0  0
 10 13  1  0     0  0
 11 13  2  0     0  0
 11 28  1  0     0  0
 12 16  2  0     0  0
 12 17  1  0     0  0
 13 29  1  0     0  0
 14 18  2  0     0  0
 14 19  1  0     0  0
 14 25  1  0     0  0
 15 20  2  0     0  0
 15 21  1  0     0  0
 15 26  1  0     0  0
 16 20  1  0     0  0
 17 21  2  0     0  0
 18 22  1  0     0  0
 19 23  2  0     0  0
 22 24  2  0     0  0
 23 24  1  0     0  0
 25 27  1  0     0  0
 30 32  1  0     0  0
 31 33  1  0     0  0
M  END
> <standard_type>
pIC50

> <# Confs.>
25

> <canonical_smiles>
O=C(N1CC(C(NC(C2=CC=C(N3CCN(C)CC3)C=C2)=O)=NN4)=C4C1)[C@H](F)C5=CC=CC=C5

> <standard_relation>
=

> <Publication_ID>
nan

> <predicted_activity_value>
6.292429823902063

> <actual_activity_value>
6.522878745280337

> <Compound>
15

> <standard_units>
nM

> hash
7649752598964339451

$$$$
14
XXILIB    08252103493D 0   0.00000     0.00000

 34 38  0     1  0            999 V2000
    2.4002    1.1425    5.0130 F   0  0  0  0  0  1           0  0  0
   -0.3116    0.0000    2.2959 O   0  0  0  0  0  2           0  0  0
    5.4534    0.0278    4.4054 O   0  0  0  0  0  2           0  0  0
    3.3931    0.0019   -0.7454 N   0  0  0  0  0  3           0  0  0
    2.0987    0.0000   -1.1466 N   0  0  0  0  0  3           0  0  0
   -6.4092   -0.0665    0.2841 N   0  0  1  0  0  3           0  0  0
    0.0000    0.0000    0.0000 N   0  0  0  0  0  3           0  0  0
    3.7470    0.0090    2.8269 N   0  0  2  0  0  3           0  0  0
   -9.1731   -0.0290   -0.4272 N   0  0  1  0  0  3           0  0  0
    1.3840   -0.0000    0.0000 C   0  0  0  0  0  4           0  0  0
    3.5006    0.0061    0.5950 C   0  0  0  0  0  4           0  0  0
   -5.0463   -0.0468    0.5023 C   0  0  0  0  0  4           0  0  0
    2.2422    0.0013    1.1104 C   0  0  0  0  0  4           0  0  0
    3.7790   -0.0344    6.5532 C   0  0  0  0  0  4           0  0  0
   -2.2291   -0.0022    0.9550 C   0  0  0  0  0  4           0  0  0
   -4.4900    0.5057    1.6710 C   0  0  0  0  0  4           0  0  0
   -4.1367   -0.5782   -0.4302 C   0  0  0  0  0  4           0  0  0
    4.0853    1.1397    7.2541 C   0  0  0  0  0  4           0  0  0
    4.0109   -1.2725    7.1692 C   0  0  0  0  0  4           0  0  0
   -3.1071    0.5312    1.8994 C   0  0  0  0  0  4           0  0  0
   -2.7526   -0.5589   -0.2129 C   0  0  0  0  0  4           0  0  0
    4.6246    1.0762    8.5404 C   0  0  0  0  0  4           0  0  0
    4.5498   -1.3341    8.4554 C   0  0  0  0  0  4           0  0  0
    4.8578   -0.1601    9.1399 C   0  0  0  0  0  4           0  0  0
    3.1803    0.0315    5.1756 C   0  0  2  0  0  4           0  0  0
   -0.7592   -0.0000    1.1511 C   0  0  0  0  0  4           0  0  0
    4.2583    0.0168    4.1132 C   0  0  0  0  0  4           0  0  0
    4.5778    0.0126    1.5794 C   0  0  0  0  0  4           0  0  0
    2.2697    0.0003    2.5765 C   0  0  0  0  0  4           0  0  0
   -7.1390    1.2053    0.2364 C   0  0  0  0  0  4           0  0  0
   -6.9939   -1.1924   -0.4524 C   0  0  0  0  0  4           0  0  0
   -8.6344    0.9922    0.4780 C   0  0  0  0  0  4           0  0  0
   -8.4953   -1.3070   -0.1831 C   0  0  0  0  0  4           0  0  0
  -10.6166   -0.1708   -0.2422 C   0  0  0  0  0  4           0  0  0
  1 25  1  0     0  0
  2 26  2  0     0  0
  3 27  2  0     0  0
  4  5  1  0     0  0
  4 11  1  0     0  0
  5 10  2  0     0  0
  6 12  1  0     0  0
  6 30  1  0     0  0
  6 31  1  0     0  0
  7 10  1  0     0  0
  7 26  1  0     0  0
  8 27  1  0     0  0
  8 28  1  0     0  0
  8 29  1  0     0  0
  9 32  1  0     0  0
  9 33  1  0     0  0
  9 34  1  0     0  0
 10 13  1  0     0  0
 11 13  2  0     0  0
 11 28  1  0     0  0
 12 16  2  0     0  0
 12 17  1  0     0  0
 13 29  1  0     0  0
 14 18  2  0     0  0
 14 19  1  0     0  0
 14 25  1  0     0  0
 15 20  2  0     0  0
 15 21  1  0     0  0
 15 26  1  0     0  0
 16 20  1  0     0  0
 17 21  2  0     0  0
 18 22  1  0     0  0
 19 23  2  0     0  0
 22 24  2  0     0  0
 23 24  1  0     0  0
 25 27  1  0     0  0
 30 32  1  0     0  0
 31 33  1  0     0  0
M  END
> <standard_type>
pIC50

> <# Confs.>
25

> <canonical_smiles>
O=C(N1CC(C(NC(C2=CC=C(N3CCN(C)CC3)C=C2)=O)=NN4)=C4C1)[C@H](F)C5=CC=CC=C5

> <standard_relation>
=

> <Publication_ID>
nan

> <predicted_activity_value>
6.292429823902063

> <actual_activity_value>
6.522878745280337

> <Compound>
15

> <standard_units>
nM

> hash
7649752598964339451

$$$$
14
XXILIB    08252103493D 0   0.00000     0.00000

 34 38  0     1  0            999 V2000
    2.8523    1.3259    5.4692 F   0  0  0  0  0  1           0  0  0
   -0.3116    0.0000    2.2959 O   0  0  0  0  0  2           0  0  0
    5.4534    0.0278    4.4054 O   0  0  0  0  0  2           0  0  0
    3.3931    0.0019   -0.7454 N   0  0  0  0  0  3           0  0  0
    2.0987    0.0000   -1.1466 N   0  0  0  0  0  3           0  0  0
   -6.4390   -0.0657    0.5075 N   0  0  1  0  0  3           0  0  0
    0.0000    0.0000    0.0000 N   0  0  0  0  0  3           0  0  0
    3.7470    0.0090    2.8269 N   0  0  2  0  0  3           0  0  0
   -9.2692   -0.3693    0.2974 N   0  0  1  0  0  3           0  0  0
    1.3840   -0.0000    0.0000 C   0  0  0  0  0  4           0  0  0
    3.5006    0.0061    0.5950 C   0  0  0  0  0  4           0  0  0
   -5.0666   -0.0447    0.6547 C   0  0  0  0  0  4           0  0  0
    2.2422    0.0013    1.1104 C   0  0  0  0  0  4           0  0  0
    3.6175   -0.7256    6.3988 C   0  0  0  0  0  4           0  0  0
   -2.2291   -0.0022    0.9550 C   0  0  0  0  0  4           0  0  0
   -4.2237    0.5099   -0.3262 C   0  0  0  0  0  4           0  0  0
   -4.4333   -0.5755    1.7934 C   0  0  0  0  0  4           0  0  0
    4.2642   -0.0654    7.4522 C   0  0  0  0  0  4           0  0  0
    3.3564   -2.0982    6.5165 C   0  0  0  0  0  4           0  0  0
   -2.8291    0.5336   -0.1852 C   0  0  0  0  0  4           0  0  0
   -3.0405   -0.5573    1.9458 C   0  0  0  0  0  4           0  0  0
    4.6534   -0.7671    8.5949 C   0  0  0  0  0  4           0  0  0
    3.7458   -2.7980    7.6599 C   0  0  0  0  0  4           0  0  0
    4.3954   -2.1328    8.6978 C   0  0  0  0  0  4           0  0  0
    3.1803    0.0315    5.1756 C   0  0  2  0  0  4           0  0  0
   -0.7592    0.0000    1.1511 C   0  0  0  0  0  4           0  0  0
    4.2583    0.0168    4.1132 C   0  0  0  0  0  4           0  0  0
    4.5778    0.0126    1.5794 C   0  0  0  0  0  4           0  0  0
    2.2697    0.0003    2.5765 C   0  0  0  0  0  4           0  0  0
   -7.0193   -0.7751   -0.6380 C   0  0  0  0  0  4           0  0  0
   -7.2829    0.0664    1.7001 C   0  0  0  0  0  4           0  0  0
   -8.4466   -0.2997   -0.9153 C   0  0  0  0  0  4           0  0  0
   -8.6995    0.5068    1.3270 C   0  0  0  0  0  4           0  0  0
  -10.6499    0.0134    0.0054 C   0  0  0  0  0  4           0  0  0
  1 25  1  0     0  0
  2 26  2  0     0  0
  3 27  2  0     0  0
  4  5  1  0     0  0
  4 11  1  0     0  0
  5 10  2  0     0  0
  6 12  1  0     0  0
  6 30  1  0     0  0
  6 31  1  0     0  0
  7 10  1  0     0  0
  7 26  1  0     0  0
  8 27  1  0     0  0
  8 28  1  0     0  0
  8 29  1  0     0  0
  9 32  1  0     0  0
  9 33  1  0     0  0
  9 34  1  0     0  0
 10 13  1  0     0  0
 11 13  2  0     0  0
 11 28  1  0     0  0
 12 16  2  0     0  0
 12 17  1  0     0  0
 13 29  1  0     0  0
 14 18  2  0     0  0
 14 19  1  0     0  0
 14 25  1  0     0  0
 15 20  2  0     0  0
 15 21  1  0     0  0
 15 26  1  0     0  0
 16 20  1  0     0  0
 17 21  2  0     0  0
 18 22  1  0     0  0
 19 23  2  0     0  0
 22 24  2  0     0  0
 23 24  1  0     0  0
 25 27  1  0     0  0
 30 32  1  0     0  0
 31 33  1  0     0  0
M  END
> <standard_type>
pIC50

> <# Confs.>
25

> <canonical_smiles>
O=C(N1CC(C(NC(C2=CC=C(N3CCN(C)CC3)C=C2)=O)=NN4)=C4C1)[C@H](F)C5=CC=CC=C5

> <standard_relation>
=

> <Publication_ID>
nan

> <predicted_activity_value>
6.292429823902063

> <actual_activity_value>
6.522878745280337

> <Compound>
15

> <standard_units>
nM

> hash
7649752598964339451

$$$$
14
XXILIB    08252103493D 0   0.00000     0.00000

 34 38  0     1  0            999 V2000
    6.2318   -1.1070    3.5036 F   0  0  0  0  0  1           0  0  0
   -0.3116    0.0000    2.2959 O   0  0  0  0  0  2           0  0  0
    3.5901    0.0140    5.1462 O   0  0  0  0  0  2           0  0  0
    3.3931    0.0019   -0.7454 N   0  0  0  0  0  3           0  0  0
    2.0987    0.0000   -1.1466 N   0  0  0  0  0  3           0  0  0
   -6.4092   -0.0665    0.2841 N   0  0  1  0  0  3           0  0  0
    0.0000    0.0000    0.0000 N   0  0  0  0  0  3           0  0  0
    3.7470    0.0090    2.8269 N   0  0  2  0  0  3           0  0  0
   -8.5421    0.6281   -1.4553 N   0  0  1  0  0  3           0  0  0
    1.3840    0.0000   -0.0000 C   0  0  0  0  0  4           0  0  0
    3.5006    0.0061    0.5950 C   0  0  0  0  0  4           0  0  0
   -5.0463   -0.0468    0.5023 C   0  0  0  0  0  4           0  0  0
    2.2422    0.0013    1.1104 C   0  0  0  0  0  4           0  0  0
    6.2817    0.0918    5.5576 C   0  0  0  0  0  4           0  0  0
   -2.2291   -0.0022    0.9550 C   0  0  0  0  0  4           0  0  0
   -4.4900    0.5057    1.6710 C   0  0  0  0  0  4           0  0  0
   -4.1367   -0.5782   -0.4302 C   0  0  0  0  0  4           0  0  0
    6.5452   -1.0736    6.2897 C   0  0  0  0  0  4           0  0  0
    6.5309    1.3373    6.1515 C   0  0  0  0  0  4           0  0  0
   -3.1071    0.5312    1.8994 C   0  0  0  0  0  4           0  0  0
   -2.7526   -0.5589   -0.2129 C   0  0  0  0  0  4           0  0  0
    7.0359   -0.9943    7.5945 C   0  0  0  0  0  4           0  0  0
    7.0218    1.4147    7.4559 C   0  0  0  0  0  4           0  0  0
    7.2727    0.2493    8.1774 C   0  0  0  0  0  4           0  0  0
    5.7716    0.0089    4.1457 C   0  0  2  0  0  4           0  0  0
   -0.7592   -0.0000    1.1511 C   0  0  0  0  0  4           0  0  0
    4.2583    0.0168    4.1132 C   0  0  0  0  0  4           0  0  0
    4.5778    0.0126    1.5794 C   0  0  0  0  0  4           0  0  0
    2.2697    0.0003    2.5765 C   0  0  0  0  0  4           0  0  0
   -7.0622   -1.1132   -0.5029 C   0  0  0  0  0  4           0  0  0
   -7.2760    1.0613    0.6281 C   0  0  0  0  0  4           0  0  0
   -7.6370   -0.4875   -1.7785 C   0  0  0  0  0  4           0  0  0
   -7.8500    1.6580   -0.6620 C   0  0  0  0  0  4           0  0  0
   -9.0985    1.2086   -2.6768 C   0  0  0  0  0  4           0  0  0
  1 25  1  0     0  0
  2 26  2  0     0  0
  3 27  2  0     0  0
  4  5  1  0     0  0
  4 11  1  0     0  0
  5 10  2  0     0  0
  6 12  1  0     0  0
  6 30  1  0     0  0
  6 31  1  0     0  0
  7 10  1  0     0  0
  7 26  1  0     0  0
  8 27  1  0     0  0
  8 28  1  0     0  0
  8 29  1  0     0  0
  9 32  1  0     0  0
  9 33  1  0     0  0
  9 34  1  0     0  0
 10 13  1  0     0  0
 11 13  2  0     0  0
 11 28  1  0     0  0
 12 16  2  0     0  0
 12 17  1  0     0  0
 13 29  1  0     0  0
 14 18  2  0     0  0
 14 19  1  0     0  0
 14 25  1  0     0  0
 15 20  2  0     0  0
 15 21  1  0     0  0
 15 26  1  0     0  0
 16 20  1  0     0  0
 17 21  2  0     0  0
 18 22  1  0     0  0
 19 23  2  0     0  0
 22 24  2  0     0  0
 23 24  1  0     0  0
 25 27  1  0     0  0
 30 32  1  0     0  0
 31 33  1  0     0  0
M  END
> <standard_type>
pIC50

> <# Confs.>
25

> <canonical_smiles>
O=C(N1CC(C(NC(C2=CC=C(N3CCN(C)CC3)C=C2)=O)=NN4)=C4C1)[C@H](F)C5=CC=CC=C5

> <standard_relation>
=

> <Publication_ID>
nan

> <predicted_activity_value>
6.292429823902063

> <actual_activity_value>
6.522878745280337

> <Compound>
15

> <standard_units>
nM

> hash
7649752598964339451

$$$$
14
XXILIB    08252103493D 0   0.00000     0.00000

 34 38  0     1  0            999 V2000
    2.4002    1.1425    5.0130 F   0  0  0  0  0  1           0  0  0
   -0.3116    0.0000    2.2959 O   0  0  0  0  0  2           0  0  0
    5.4534    0.0278    4.4054 O   0  0  0  0  0  2           0  0  0
    3.3931    0.0019   -0.7454 N   0  0  0  0  0  3           0  0  0
    2.0987    0.0000   -1.1466 N   0  0  0  0  0  3           0  0  0
   -6.4092   -0.0665    0.2841 N   0  0  1  0  0  3           0  0  0
    0.0000    0.0000    0.0000 N   0  0  0  0  0  3           0  0  0
    3.7470    0.0090    2.8269 N   0  0  2  0  0  3           0  0  0
   -8.5421    0.6281   -1.4553 N   0  0  1  0  0  3           0  0  0
    1.3840   -0.0000    0.0000 C   0  0  0  0  0  4           0  0  0
    3.5006    0.0061    0.5950 C   0  0  0  0  0  4           0  0  0
   -5.0463   -0.0468    0.5023 C   0  0  0  0  0  4           0  0  0
    2.2422    0.0013    1.1104 C   0  0  0  0  0  4           0  0  0
    3.7790   -0.0344    6.5532 C   0  0  0  0  0  4           0  0  0
   -2.2291   -0.0022    0.9550 C   0  0  0  0  0  4           0  0  0
   -4.4900    0.5057    1.6710 C   0  0  0  0  0  4           0  0  0
   -4.1367   -0.5782   -0.4302 C   0  0  0  0  0  4           0  0  0
    4.0853    1.1397    7.2541 C   0  0  0  0  0  4           0  0  0
    4.0109   -1.2725    7.1692 C   0  0  0  0  0  4           0  0  0
   -3.1071    0.5312    1.8994 C   0  0  0  0  0  4           0  0  0
   -2.7526   -0.5589   -0.2129 C   0  0  0  0  0  4           0  0  0
    4.6246    1.0762    8.5404 C   0  0  0  0  0  4           0  0  0
    4.5498   -1.3341    8.4554 C   0  0  0  0  0  4           0  0  0
    4.8578   -0.1601    9.1399 C   0  0  0  0  0  4           0  0  0
    3.1803    0.0315    5.1756 C   0  0  2  0  0  4           0  0  0
   -0.7592   -0.0000    1.1511 C   0  0  0  0  0  4           0  0  0
    4.2583    0.0168    4.1132 C   0  0  0  0  0  4           0  0  0
    4.5778    0.0126    1.5794 C   0  0  0  0  0  4           0  0  0
    2.2697    0.0003    2.5765 C   0  0  0  0  0  4           0  0  0
   -7.0622   -1.1132   -0.5029 C   0  0  0  0  0  4           0  0  0
   -7.2760    1.0613    0.6281 C   0  0  0  0  0  4           0  0  0
   -7.6370   -0.4875   -1.7785 C   0  0  0  0  0  4           0  0  0
   -7.8500    1.6580   -0.6620 C   0  0  0  0  0  4           0  0  0
   -9.0985    1.2086   -2.6768 C   0  0  0  0  0  4           0  0  0
  1 25  1  0     0  0
  2 26  2  0     0  0
  3 27  2  0     0  0
  4  5  1  0     0  0
  4 11  1  0     0  0
  5 10  2  0     0  0
  6 12  1  0     0  0
  6 30  1  0     0  0
  6 31  1  0     0  0
  7 10  1  0     0  0
  7 26  1  0     0  0
  8 27  1  0     0  0
  8 28  1  0     0  0
  8 29  1  0     0  0
  9 32  1  0     0  0
  9 33  1  0     0  0
  9 34  1  0     0  0
 10 13  1  0     0  0
 11 13  2  0     0  0
 11 28  1  0     0  0
 12 16  2  0     0  0
 12 17  1  0     0  0
 13 29  1  0     0  0
 14 18  2  0     0  0
 14 19  1  0     0  0
 14 25  1  0     0  0
 15 20  2  0     0  0
 15 21  1  0     0  0
 15 26  1  0     0  0
 16 20  1  0     0  0
 17 21  2  0     0  0
 18 22  1  0     0  0
 19 23  2  0     0  0
 22 24  2  0     0  0
 23 24  1  0     0  0
 25 27  1  0     0  0
 30 32  1  0     0  0
 31 33  1  0     0  0
M  END
> <standard_type>
pIC50

> <# Confs.>
25

> <canonical_smiles>
O=C(N1CC(C(NC(C2=CC=C(N3CCN(C)CC3)C=C2)=O)=NN4)=C4C1)[C@H](F)C5=CC=CC=C5

> <standard_relation>
=

> <Publication_ID>
nan

> <predicted_activity_value>
6.292429823902063

> <actual_activity_value>
6.522878745280337

> <Compound>
15

> <standard_units>
nM

> hash
7649752598964339451

$$$$
14
XXILIB    08252103493D 0   0.00000     0.00000

 34 38  0     1  0            999 V2000
    6.2318   -1.1070    3.5036 F   0  0  0  0  0  1           0  0  0
   -0.3116    0.0000    2.2959 O   0  0  0  0  0  2           0  0  0
    3.5901    0.0140    5.1462 O   0  0  0  0  0  2           0  0  0
    3.3931    0.0019   -0.7454 N   0  0  0  0  0  3           0  0  0
    2.0987    0.0000   -1.1466 N   0  0  0  0  0  3           0  0  0
   -6.4093    0.0484    0.2836 N   0  0  1  0  0  3           0  0  0
    0.0000    0.0000    0.0000 N   0  0  0  0  0  3           0  0  0
    3.7470    0.0090    2.8269 N   0  0  2  0  0  3           0  0  0
   -8.2775   -0.6696   -1.7298 N   0  0  1  0  0  3           0  0  0
    1.3840    0.0000   -0.0000 C   0  0  0  0  0  4           0  0  0
    3.5006    0.0061    0.5950 C   0  0  0  0  0  4           0  0  0
   -5.0463    0.0316    0.5012 C   0  0  0  0  0  4           0  0  0
    2.2422    0.0013    1.1104 C   0  0  0  0  0  4           0  0  0
    6.2817    0.0918    5.5576 C   0  0  0  0  0  4           0  0  0
   -2.2291   -0.0022    0.9550 C   0  0  0  0  0  4           0  0  0
   -4.4882   -0.5209    1.6690 C   0  0  0  0  0  4           0  0  0
   -4.1383    0.5648   -0.4318 C   0  0  0  0  0  4           0  0  0
    6.5452   -1.0736    6.2897 C   0  0  0  0  0  4           0  0  0
    6.5309    1.3373    6.1515 C   0  0  0  0  0  4           0  0  0
   -3.1053   -0.5404    1.8984 C   0  0  0  0  0  4           0  0  0
   -2.7542    0.5508   -0.2140 C   0  0  0  0  0  4           0  0  0
    7.0359   -0.9943    7.5945 C   0  0  0  0  0  4           0  0  0
    7.0218    1.4147    7.4559 C   0  0  0  0  0  4           0  0  0
    7.2727    0.2493    8.1774 C   0  0  0  0  0  4           0  0  0
    5.7716    0.0089    4.1457 C   0  0  2  0  0  4           0  0  0
   -0.7592    0.0000    1.1511 C   0  0  0  0  0  4           0  0  0
    4.2583    0.0168    4.1132 C   0  0  0  0  0  4           0  0  0
    4.5778    0.0126    1.5794 C   0  0  0  0  0  4           0  0  0
    2.2697    0.0003    2.5765 C   0  0  0  0  0  4           0  0  0
   -7.0532    1.1007   -0.5042 C   0  0  0  0  0  4           0  0  0
   -7.2365   -1.1456    0.4668 C   0  0  0  0  0  4           0  0  0
   -7.4305    0.5274   -1.8756 C   0  0  0  0  0  4           0  0  0
   -7.6124   -1.6998   -0.9126 C   0  0  0  0  0  4           0  0  0
   -8.6354   -1.2092   -3.0409 C   0  0  0  0  0  4           0  0  0
  1 25  1  0     0  0
  2 26  2  0     0  0
  3 27  2  0     0  0
  4  5  1  0     0  0
  4 11  1  0     0  0
  5 10  2  0     0  0
  6 12  1  0     0  0
  6 30  1  0     0  0
  6 31  1  0     0  0
  7 10  1  0     0  0
  7 26  1  0     0  0
  8 27  1  0     0  0
  8 28  1  0     0  0
  8 29  1  0     0  0
  9 32  1  0     0  0
  9 33  1  0     0  0
  9 34  1  0     0  0
 10 13  1  0     0  0
 11 13  2  0     0  0
 11 28  1  0     0  0
 12 16  2  0     0  0
 12 17  1  0     0  0
 13 29  1  0     0  0
 14 18  2  0     0  0
 14 19  1  0     0  0
 14 25  1  0     0  0
 15 20  2  0     0  0
 15 21  1  0     0  0
 15 26  1  0     0  0
 16 20  1  0     0  0
 17 21  2  0     0  0
 18 22  1  0     0  0
 19 23  2  0     0  0
 22 24  2  0     0  0
 23 24  1  0     0  0
 25 27  1  0     0  0
 30 32  1  0     0  0
 31 33  1  0     0  0
M  END
> <standard_type>
pIC50

> <# Confs.>
25

> <canonical_smiles>
O=C(N1CC(C(NC(C2=CC=C(N3CCN(C)CC3)C=C2)=O)=NN4)=C4C1)[C@H](F)C5=CC=CC=C5

> <standard_relation>
=

> <Publication_ID>
nan

> <predicted_activity_value>
6.292429823902063

> <actual_activity_value>
6.522878745280337

> <Compound>
15

> <standard_units>
nM

> hash
7649752598964339451

$$$$
14
XXILIB    08252103493D 0   0.00000     0.00000

 34 38  0     1  0            999 V2000
    6.2170   -1.2837    4.1475 F   0  0  0  0  0  1           0  0  0
   -0.3116    0.0000    2.2959 O   0  0  0  0  0  2           0  0  0
    3.5901    0.0140    5.1462 O   0  0  0  0  0  2           0  0  0
    3.3931    0.0019   -0.7454 N   0  0  0  0  0  3           0  0  0
    2.0987    0.0000   -1.1466 N   0  0  0  0  0  3           0  0  0
   -6.4390   -0.0657    0.5075 N   0  0  1  0  0  3           0  0  0
    0.0000    0.0000    0.0000 N   0  0  0  0  0  3           0  0  0
    3.7470    0.0090    2.8269 N   0  0  2  0  0  3           0  0  0
   -9.2692   -0.3693    0.2974 N   0  0  1  0  0  3           0  0  0
    1.3840    0.0000   -0.0000 C   0  0  0  0  0  4           0  0  0
    3.5006    0.0061    0.5950 C   0  0  0  0  0  4           0  0  0
   -5.0666   -0.0447    0.6547 C   0  0  0  0  0  4           0  0  0
    2.2422    0.0013    1.1104 C   0  0  0  0  0  4           0  0  0
    6.2903    0.7806    5.3271 C   0  0  0  0  0  4           0  0  0
   -2.2291   -0.0022    0.9550 C   0  0  0  0  0  4           0  0  0
   -4.2237    0.5099   -0.3262 C   0  0  0  0  0  4           0  0  0
   -4.4333   -0.5755    1.7934 C   0  0  0  0  0  4           0  0  0
    6.5460    0.1343    6.5439 C   0  0  0  0  0  4           0  0  0
    6.5552    2.1532    5.2190 C   0  0  0  0  0  4           0  0  0
   -2.8291    0.5336   -0.1852 C   0  0  0  0  0  4           0  0  0
   -3.0405   -0.5573    1.9458 C   0  0  0  0  0  4           0  0  0
    7.0447    0.8496    7.6345 C   0  0  0  0  0  4           0  0  0
    7.0541    2.8668    6.3102 C   0  0  0  0  0  4           0  0  0
    7.2972    2.2152    7.5177 C   0  0  0  0  0  4           0  0  0
    5.7716    0.0089    4.1457 C   0  0  2  0  0  4           0  0  0
   -0.7592    0.0000    1.1511 C   0  0  0  0  0  4           0  0  0
    4.2583    0.0168    4.1132 C   0  0  0  0  0  4           0  0  0
    4.5778    0.0126    1.5794 C   0  0  0  0  0  4           0  0  0
    2.2697    0.0003    2.5765 C   0  0  0  0  0  4           0  0  0
   -7.0193   -0.7751   -0.6380 C   0  0  0  0  0  4           0  0  0
   -7.2829    0.0664    1.7001 C   0  0  0  0  0  4           0  0  0
   -8.4466   -0.2997   -0.9153 C   0  0  0  0  0  4           0  0  0
   -8.6995    0.5068    1.3270 C   0  0  0  0  0  4           0  0  0
  -10.6499    0.0134    0.0054 C   0  0  0  0  0  4           0  0  0
  1 25  1  0     0  0
  2 26  2  0     0  0
  3 27  2  0     0  0
  4  5  1  0     0  0
  4 11  1  0     0  0
  5 10  2  0     0  0
  6 12  1  0     0  0
  6 30  1  0     0  0
  6 31  1  0     0  0
  7 10  1  0     0  0
  7 26  1  0     0  0
  8 27  1  0     0  0
  8 28  1  0     0  0
  8 29  1  0     0  0
  9 32  1  0     0  0
  9 33  1  0     0  0
  9 34  1  0     0  0
 10 13  1  0     0  0
 11 13  2  0     0  0
 11 28  1  0     0  0
 12 16  2  0     0  0
 12 17  1  0     0  0
 13 29  1  0     0  0
 14 18  2  0     0  0
 14 19  1  0     0  0
 14 25  1  0     0  0
 15 20  2  0     0  0
 15 21  1  0     0  0
 15 26  1  0     0  0
 16 20  1  0     0  0
 17 21  2  0     0  0
 18 22  1  0     0  0
 19 23  2  0     0  0
 22 24  2  0     0  0
 23 24  1  0     0  0
 25 27  1  0     0  0
 30 32  1  0     0  0
 31 33  1  0     0  0
M  END
> <standard_type>
pIC50

> <# Confs.>
25

> <canonical_smiles>
O=C(N1CC(C(NC(C2=CC=C(N3CCN(C)CC3)C=C2)=O)=NN4)=C4C1)[C@H](F)C5=CC=CC=C5

> <standard_relation>
=

> <Publication_ID>
nan

> <predicted_activity_value>
6.292429823902063

> <actual_activity_value>
6.522878745280337

> <Compound>
15

> <standard_units>
nM

> hash
7649752598964339451

$$$$
14
XXILIB    08252103493D 0   0.00000     0.00000

 34 38  0     1  0            999 V2000
    2.4002    1.1425    5.0130 F   0  0  0  0  0  1           0  0  0
   -0.3116    0.0000    2.2959 O   0  0  0  0  0  2           0  0  0
    5.4534    0.0278    4.4054 O   0  0  0  0  0  2           0  0  0
    3.3931    0.0019   -0.7454 N   0  0  0  0  0  3           0  0  0
    2.0987    0.0000   -1.1466 N   0  0  0  0  0  3           0  0  0
   -6.4093    0.0484    0.2836 N   0  0  1  0  0  3           0  0  0
    0.0000    0.0000    0.0000 N   0  0  0  0  0  3           0  0  0
    3.7470    0.0090    2.8269 N   0  0  2  0  0  3           0  0  0
   -8.2775   -0.6696   -1.7298 N   0  0  1  0  0  3           0  0  0
    1.3840   -0.0000    0.0000 C   0  0  0  0  0  4           0  0  0
    3.5006    0.0061    0.5950 C   0  0  0  0  0  4           0  0  0
   -5.0463    0.0316    0.5012 C   0  0  0  0  0  4           0  0  0
    2.2422    0.0013    1.1104 C   0  0  0  0  0  4           0  0  0
    3.7790   -0.0344    6.5532 C   0  0  0  0  0  4           0  0  0
   -2.2291   -0.0022    0.9550 C   0  0  0  0  0  4           0  0  0
   -4.4882   -0.5209    1.6690 C   0  0  0  0  0  4           0  0  0
   -4.1383    0.5648   -0.4318 C   0  0  0  0  0  4           0  0  0
    4.0853    1.1397    7.2541 C   0  0  0  0  0  4           0  0  0
    4.0109   -1.2725    7.1692 C   0  0  0  0  0  4           0  0  0
   -3.1053   -0.5404    1.8984 C   0  0  0  0  0  4           0  0  0
   -2.7542    0.5508   -0.2140 C   0  0  0  0  0  4           0  0  0
    4.6246    1.0762    8.5404 C   0  0  0  0  0  4           0  0  0
    4.5498   -1.3341    8.4554 C   0  0  0  0  0  4           0  0  0
    4.8578   -0.1601    9.1399 C   0  0  0  0  0  4           0  0  0
    3.1803    0.0315    5.1756 C   0  0  2  0  0  4           0  0  0
   -0.7592    0.0000    1.1511 C   0  0  0  0  0  4           0  0  0
    4.2583    0.0168    4.1132 C   0  0  0  0  0  4           0  0  0
    4.5778    0.0126    1.5794 C   0  0  0  0  0  4           0  0  0
    2.2697    0.0003    2.5765 C   0  0  0  0  0  4           0  0  0
   -7.0532    1.1007   -0.5042 C   0  0  0  0  0  4           0  0  0
   -7.2365   -1.1456    0.4668 C   0  0  0  0  0  4           0  0  0
   -7.4305    0.5274   -1.8756 C   0  0  0  0  0  4           0  0  0
   -7.6124   -1.6998   -0.9126 C   0  0  0  0  0  4           0  0  0
   -8.6354   -1.2092   -3.0409 C   0  0  0  0  0  4           0  0  0
  1 25  1  0     0  0
  2 26  2  0     0  0
  3 27  2  0     0  0
  4  5  1  0     0  0
  4 11  1  0     0  0
  5 10  2  0     0  0
  6 12  1  0     0  0
  6 30  1  0     0  0
  6 31  1  0     0  0
  7 10  1  0     0  0
  7 26  1  0     0  0
  8 27  1  0     0  0
  8 28  1  0     0  0
  8 29  1  0     0  0
  9 32  1  0     0  0
  9 33  1  0     0  0
  9 34  1  0     0  0
 10 13  1  0     0  0
 11 13  2  0     0  0
 11 28  1  0     0  0
 12 16  2  0     0  0
 12 17  1  0     0  0
 13 29  1  0     0  0
 14 18  2  0     0  0
 14 19  1  0     0  0
 14 25  1  0     0  0
 15 20  2  0     0  0
 15 21  1  0     0  0
 15 26  1  0     0  0
 16 20  1  0     0  0
 17 21  2  0     0  0
 18 22  1  0     0  0
 19 23  2  0     0  0
 22 24  2  0     0  0
 23 24  1  0     0  0
 25 27  1  0     0  0
 30 32  1  0     0  0
 31 33  1  0     0  0
M  END
> <standard_type>
pIC50

> <# Confs.>
25

> <canonical_smiles>
O=C(N1CC(C(NC(C2=CC=C(N3CCN(C)CC3)C=C2)=O)=NN4)=C4C1)[C@H](F)C5=CC=CC=C5

> <standard_relation>
=

> <Publication_ID>
nan

> <predicted_activity_value>
6.292429823902063

> <actual_activity_value>
6.522878745280337

> <Compound>
15

> <standard_units>
nM

> hash
7649752598964339451

$$$$
14
XXILIB    08252103493D 0   0.00000     0.00000

 34 38  0     1  0            999 V2000
    3.6397    0.6992    6.2767 F   0  0  0  0  0  1           0  0  0
   -0.3116    0.0000    2.2959 O   0  0  0  0  0  2           0  0  0
    5.4534    0.0278    4.4054 O   0  0  0  0  0  2           0  0  0
    3.3931    0.0019   -0.7454 N   0  0  0  0  0  3           0  0  0
    2.0987    0.0000   -1.1466 N   0  0  0  0  0  3           0  0  0
   -6.4390   -0.0657    0.5075 N   0  0  1  0  0  3           0  0  0
    0.0000    0.0000    0.0000 N   0  0  0  0  0  3           0  0  0
    3.7470    0.0090    2.8269 N   0  0  2  0  0  3           0  0  0
   -9.2925   -0.0159    0.4635 N   0  0  1  0  0  3           0  0  0
    1.3840   -0.0000    0.0000 C   0  0  0  0  0  4           0  0  0
    3.5006    0.0061    0.5950 C   0  0  0  0  0  4           0  0  0
   -5.0666   -0.0447    0.6547 C   0  0  0  0  0  4           0  0  0
    2.2422    0.0013    1.1104 C   0  0  0  0  0  4           0  0  0
    2.7362   -1.3647    5.5134 C   0  0  0  0  0  4           0  0  0
   -2.2291   -0.0022    0.9550 C   0  0  0  0  0  4           0  0  0
   -4.2237    0.5099   -0.3262 C   0  0  0  0  0  4           0  0  0
   -4.4333   -0.5755    1.7934 C   0  0  0  0  0  4           0  0  0
    1.4159   -1.6162    5.9099 C   0  0  0  0  0  4           0  0  0
    3.6293   -2.4403    5.4065 C   0  0  0  0  0  4           0  0  0
   -2.8291    0.5336   -0.1852 C   0  0  0  0  0  4           0  0  0
   -3.0405   -0.5573    1.9458 C   0  0  0  0  0  4           0  0  0
    1.0010   -2.9162    6.2058 C   0  0  0  0  0  4           0  0  0
    3.2127   -3.7393    5.7024 C   0  0  0  0  0  4           0  0  0
    1.8994   -3.9767    6.1034 C   0  0  0  0  0  4           0  0  0
    3.1803    0.0315    5.1756 C   0  0  2  0  0  4           0  0  0
   -0.7592    0.0000    1.1511 C   0  0  0  0  0  4           0  0  0
    4.2583    0.0168    4.1132 C   0  0  0  0  0  4           0  0  0
    4.5778    0.0126    1.5794 C   0  0  0  0  0  4           0  0  0
    2.2697    0.0003    2.5765 C   0  0  0  0  0  4           0  0  0
   -7.2030   -1.1534    1.1283 C   0  0  0  0  0  4           0  0  0
   -7.1487    1.1992    0.2877 C   0  0  0  0  0  4           0  0  0
   -8.5810   -1.2989    0.4803 C   0  0  0  0  0  4           0  0  0
   -8.5291    0.9574   -0.3254 C   0  0  0  0  0  4           0  0  0
  -10.6370   -0.1803   -0.0870 C   0  0  0  0  0  4           0  0  0
  1 25  1  0     0  0
  2 26  2  0     0  0
  3 27  2  0     0  0
  4  5  1  0     0  0
  4 11  1  0     0  0
  5 10  2  0     0  0
  6 12  1  0     0  0
  6 30  1  0     0  0
  6 31  1  0     0  0
  7 10  1  0     0  0
  7 26  1  0     0  0
  8 27  1  0     0  0
  8 28  1  0     0  0
  8 29  1  0     0  0
  9 32  1  0     0  0
  9 33  1  0     0  0
  9 34  1  0     0  0
 10 13  1  0     0  0
 11 13  2  0     0  0
 11 28  1  0     0  0
 12 16  2  0     0  0
 12 17  1  0     0  0
 13 29  1  0     0  0
 14 18  2  0     0  0
 14 19  1  0     0  0
 14 25  1  0     0  0
 15 20  2  0     0  0
 15 21  1  0     0  0
 15 26  1  0     0  0
 16 20  1  0     0  0
 17 21  2  0     0  0
 18 22  1  0     0  0
 19 23  2  0     0  0
 22 24  2  0     0  0
 23 24  1  0     0  0
 25 27  1  0     0  0
 30 32  1  0     0  0
 31 33  1  0     0  0
M  END
> <standard_type>
pIC50

> <# Confs.>
25

> <canonical_smiles>
O=C(N1CC(C(NC(C2=CC=C(N3CCN(C)CC3)C=C2)=O)=NN4)=C4C1)[C@H](F)C5=CC=CC=C5

> <standard_relation>
=

> <Publication_ID>
nan

> <predicted_activity_value>
6.292429823902063

> <actual_activity_value>
6.522878745280337

> <Compound>
15

> <standard_units>
nM

> hash
7649752598964339451

$$$$
14
XXILIB    08252103493D 0   0.00000     0.00000

 34 38  0     1  0            999 V2000
    3.6397    0.6992    6.2767 F   0  0  0  0  0  1           0  0  0
   -0.3116    0.0000    2.2959 O   0  0  0  0  0  2           0  0  0
    5.4534    0.0278    4.4054 O   0  0  0  0  0  2           0  0  0
    3.3931    0.0019   -0.7454 N   0  0  0  0  0  3           0  0  0
    2.0987    0.0000   -1.1466 N   0  0  0  0  0  3           0  0  0
   -6.4391    0.0492    0.5071 N   0  0  1  0  0  3           0  0  0
    0.0000    0.0000    0.0000 N   0  0  0  0  0  3           0  0  0
    3.7470    0.0090    2.8269 N   0  0  2  0  0  3           0  0  0
   -9.2690    0.3465    0.2834 N   0  0  1  0  0  3           0  0  0
    1.3840   -0.0000    0.0000 C   0  0  0  0  0  4           0  0  0
    3.5006    0.0061    0.5950 C   0  0  0  0  0  4           0  0  0
   -5.0666    0.0337    0.6537 C   0  0  0  0  0  4           0  0  0
    2.2422    0.0013    1.1104 C   0  0  0  0  0  4           0  0  0
    2.7362   -1.3647    5.5134 C   0  0  0  0  0  4           0  0  0
   -2.2291   -0.0022    0.9550 C   0  0  0  0  0  4           0  0  0
   -4.2218   -0.5167   -0.3282 C   0  0  0  0  0  4           0  0  0
   -4.4348    0.5675    1.7918 C   0  0  0  0  0  4           0  0  0
    1.4159   -1.6162    5.9099 C   0  0  0  0  0  4           0  0  0
    3.6293   -2.4403    5.4065 C   0  0  0  0  0  4           0  0  0
   -2.8273   -0.5380   -0.1862 C   0  0  0  0  0  4           0  0  0
   -3.0421    0.5524    1.9448 C   0  0  0  0  0  4           0  0  0
    1.0010   -2.9162    6.2058 C   0  0  0  0  0  4           0  0  0
    3.2127   -3.7393    5.7024 C   0  0  0  0  0  4           0  0  0
    1.8994   -3.9767    6.1034 C   0  0  0  0  0  4           0  0  0
    3.1803    0.0315    5.1756 C   0  0  2  0  0  4           0  0  0
   -0.7592    0.0000    1.1511 C   0  0  0  0  0  4           0  0  0
    4.2583    0.0168    4.1132 C   0  0  0  0  0  4           0  0  0
    4.5778    0.0126    1.5794 C   0  0  0  0  0  4           0  0  0
    2.2697    0.0003    2.5765 C   0  0  0  0  0  4           0  0  0
   -7.2818   -0.0111    1.7065 C   0  0  0  0  0  4           0  0  0
   -7.0193    0.6918   -0.6771 C   0  0  0  0  0  4           0  0  0
   -8.6998   -0.4697    1.3614 C   0  0  0  0  0  4           0  0  0
   -8.4481    0.2048   -0.9243 C   0  0  0  0  0  4           0  0  0
  -10.6506   -0.0486    0.0133 C   0  0  0  0  0  4           0  0  0
  1 25  1  0     0  0
  2 26  2  0     0  0
  3 27  2  0     0  0
  4  5  1  0     0  0
  4 11  1  0     0  0
  5 10  2  0     0  0
  6 12  1  0     0  0
  6 30  1  0     0  0
  6 31  1  0     0  0
  7 10  1  0     0  0
  7 26  1  0     0  0
  8 27  1  0     0  0
  8 28  1  0     0  0
  8 29  1  0     0  0
  9 32  1  0     0  0
  9 33  1  0     0  0
  9 34  1  0     0  0
 10 13  1  0     0  0
 11 13  2  0     0  0
 11 28  1  0     0  0
 12 16  2  0     0  0
 12 17  1  0     0  0
 13 29  1  0     0  0
 14 18  2  0     0  0
 14 19  1  0     0  0
 14 25  1  0     0  0
 15 20  2  0     0  0
 15 21  1  0     0  0
 15 26  1  0     0  0
 16 20  1  0     0  0
 17 21  2  0     0  0
 18 22  1  0     0  0
 19 23  2  0     0  0
 22 24  2  0     0  0
 23 24  1  0     0  0
 25 27  1  0     0  0
 30 32  1  0     0  0
 31 33  1  0     0  0
M  END
> <standard_type>
pIC50

> <# Confs.>
25

> <canonical_smiles>
O=C(N1CC(C(NC(C2=CC=C(N3CCN(C)CC3)C=C2)=O)=NN4)=C4C1)[C@H](F)C5=CC=CC=C5

> <standard_relation>
=

> <Publication_ID>
nan

> <predicted_activity_value>
6.292429823902063

> <actual_activity_value>
6.522878745280337

> <Compound>
15

> <standard_units>
nM

> hash
7649752598964339451

$$$$
14
XXILIB    08252103493D 0   0.00000     0.00000

 34 38  0     1  0            999 V2000
    6.4956    0.0732    3.3915 F   0  0  0  0  0  1           0  0  0
   -0.3116    0.0000    2.2959 O   0  0  0  0  0  2           0  0  0
    3.7192   -0.4864    5.0980 O   0  0  0  0  0  2           0  0  0
    3.3931    0.0019   -0.7454 N   0  0  0  0  0  3           0  0  0
    2.0987    0.0000   -1.1466 N   0  0  0  0  0  3           0  0  0
   -6.4390   -0.0657    0.5075 N   0  0  1  0  0  3           0  0  0
    0.0000    0.0000    0.0000 N   0  0  0  0  0  3           0  0  0
    3.7470    0.0090    2.8269 N   0  0  2  0  0  3           0  0  0
   -9.2692   -0.3693    0.2974 N   0  0  1  0  0  3           0  0  0
    1.3840    0.0000   -0.0000 C   0  0  0  0  0  4           0  0  0
    3.5006    0.0061    0.5950 C   0  0  0  0  0  4           0  0  0
   -5.0666   -0.0447    0.6547 C   0  0  0  0  0  4           0  0  0
    2.2422    0.0013    1.1104 C   0  0  0  0  0  4           0  0  0
    6.0833    0.7567    5.6324 C   0  0  0  0  0  4           0  0  0
   -2.2291   -0.0022    0.9550 C   0  0  0  0  0  4           0  0  0
   -4.2237    0.5099   -0.3262 C   0  0  0  0  0  4           0  0  0
   -4.4333   -0.5755    1.7934 C   0  0  0  0  0  4           0  0  0
    6.8932   -0.2648    6.1464 C   0  0  0  0  0  4           0  0  0
    5.7543    1.8419    6.4571 C   0  0  0  0  0  4           0  0  0
   -2.8291    0.5336   -0.1852 C   0  0  0  0  0  4           0  0  0
   -3.0405   -0.5573    1.9458 C   0  0  0  0  0  4           0  0  0
    7.3540   -0.2081    7.4632 C   0  0  0  0  0  4           0  0  0
    6.2162    1.8972    7.7732 C   0  0  0  0  0  4           0  0  0
    7.0144    0.8717    8.2763 C   0  0  0  0  0  4           0  0  0
    5.6018    0.7075    4.2089 C   0  0  2  0  0  4           0  0  0
   -0.7592    0.0000    1.1511 C   0  0  0  0  0  4           0  0  0
    4.2583    0.0168    4.1132 C   0  0  0  0  0  4           0  0  0
    4.5778    0.0126    1.5794 C   0  0  0  0  0  4           0  0  0
    2.2697    0.0003    2.5765 C   0  0  0  0  0  4           0  0  0
   -7.0193   -0.7751   -0.6380 C   0  0  0  0  0  4           0  0  0
   -7.2829    0.0664    1.7001 C   0  0  0  0  0  4           0  0  0
   -8.4466   -0.2997   -0.9153 C   0  0  0  0  0  4           0  0  0
   -8.6995    0.5068    1.3270 C   0  0  0  0  0  4           0  0  0
  -10.6499    0.0134    0.0054 C   0  0  0  0  0  4           0  0  0
  1 25  1  0     0  0
  2 26  2  0     0  0
  3 27  2  0     0  0
  4  5  1  0     0  0
  4 11  1  0     0  0
  5 10  2  0     0  0
  6 12  1  0     0  0
  6 30  1  0     0  0
  6 31  1  0     0  0
  7 10  1  0     0  0
  7 26  1  0     0  0
  8 27  1  0     0  0
  8 28  1  0     0  0
  8 29  1  0     0  0
  9 32  1  0     0  0
  9 33  1  0     0  0
  9 34  1  0     0  0
 10 13  1  0     0  0
 11 13  2  0     0  0
 11 28  1  0     0  0
 12 16  2  0     0  0
 12 17  1  0     0  0
 13 29  1  0     0  0
 14 18  2  0     0  0
 14 19  1  0     0  0
 14 25  1  0     0  0
 15 20  2  0     0  0
 15 21  1  0     0  0
 15 26  1  0     0  0
 16 20  1  0     0  0
 17 21  2  0     0  0
 18 22  1  0     0  0
 19 23  2  0     0  0
 22 24  2  0     0  0
 23 24  1  0     0  0
 25 27  1  0     0  0
 30 32  1  0     0  0
 31 33  1  0     0  0
M  END
> <standard_type>
pIC50

> <# Confs.>
25

> <canonical_smiles>
O=C(N1CC(C(NC(C2=CC=C(N3CCN(C)CC3)C=C2)=O)=NN4)=C4C1)[C@H](F)C5=CC=CC=C5

> <standard_relation>
=

> <Publication_ID>
nan

> <predicted_activity_value>
6.292429823902063

> <actual_activity_value>
6.522878745280337

> <Compound>
15

> <standard_units>
nM

> hash
7649752598964339451

$$$$
14
XXILIB    08252103493D 0   0.00000     0.00000

 34 38  0     1  0            999 V2000
    6.2318   -1.1070    3.5036 F   0  0  0  0  0  1           0  0  0
   -0.3116    0.0000    2.2959 O   0  0  0  0  0  2           0  0  0
    3.5901    0.0140    5.1462 O   0  0  0  0  0  2           0  0  0
    3.3931    0.0019   -0.7454 N   0  0  0  0  0  3           0  0  0
    2.0987    0.0000   -1.1466 N   0  0  0  0  0  3           0  0  0
   -6.4093    0.0484    0.2836 N   0  0  1  0  0  3           0  0  0
    0.0000    0.0000    0.0000 N   0  0  0  0  0  3           0  0  0
    3.7470    0.0090    2.8269 N   0  0  2  0  0  3           0  0  0
   -8.3979    1.7682   -0.7875 N   0  0  1  0  0  3           0  0  0
    1.3840    0.0000   -0.0000 C   0  0  0  0  0  4           0  0  0
    3.5006    0.0061    0.5950 C   0  0  0  0  0  4           0  0  0
   -5.0463    0.0316    0.5012 C   0  0  0  0  0  4           0  0  0
    2.2422    0.0013    1.1104 C   0  0  0  0  0  4           0  0  0
    6.2817    0.0918    5.5576 C   0  0  0  0  0  4           0  0  0
   -2.2291   -0.0022    0.9550 C   0  0  0  0  0  4           0  0  0
   -4.4882   -0.5209    1.6690 C   0  0  0  0  0  4           0  0  0
   -4.1383    0.5648   -0.4318 C   0  0  0  0  0  4           0  0  0
    6.5452   -1.0736    6.2897 C   0  0  0  0  0  4           0  0  0
    6.5309    1.3373    6.1515 C   0  0  0  0  0  4           0  0  0
   -3.1053   -0.5404    1.8984 C   0  0  0  0  0  4           0  0  0
   -2.7542    0.5508   -0.2140 C   0  0  0  0  0  4           0  0  0
    7.0359   -0.9943    7.5945 C   0  0  0  0  0  4           0  0  0
    7.0218    1.4147    7.4559 C   0  0  0  0  0  4           0  0  0
    7.2727    0.2493    8.1774 C   0  0  0  0  0  4           0  0  0
    5.7716    0.0089    4.1457 C   0  0  2  0  0  4           0  0  0
   -0.7592    0.0000    1.1511 C   0  0  0  0  0  4           0  0  0
    4.2583    0.0168    4.1132 C   0  0  0  0  0  4           0  0  0
    4.5778    0.0126    1.5794 C   0  0  0  0  0  4           0  0  0
    2.2697    0.0003    2.5765 C   0  0  0  0  0  4           0  0  0
   -7.3287    0.7342    1.1931 C   0  0  0  0  0  4           0  0  0
   -6.9870   -0.2535   -1.0273 C   0  0  0  0  0  4           0  0  0
   -7.7961    2.0359    0.5307 C   0  0  0  0  0  4           0  0  0
   -7.4574    1.0564   -1.6708 C   0  0  0  0  0  4           0  0  0
   -8.8434    3.0131   -1.4119 C   0  0  0  0  0  4           0  0  0
  1 25  1  0     0  0
  2 26  2  0     0  0
  3 27  2  0     0  0
  4  5  1  0     0  0
  4 11  1  0     0  0
  5 10  2  0     0  0
  6 12  1  0     0  0
  6 30  1  0     0  0
  6 31  1  0     0  0
  7 10  1  0     0  0
  7 26  1  0     0  0
  8 27  1  0     0  0
  8 28  1  0     0  0
  8 29  1  0     0  0
  9 32  1  0     0  0
  9 33  1  0     0  0
  9 34  1  0     0  0
 10 13  1  0     0  0
 11 13  2  0     0  0
 11 28  1  0     0  0
 12 16  2  0     0  0
 12 17  1  0     0  0
 13 29  1  0     0  0
 14 18  2  0     0  0
 14 19  1  0     0  0
 14 25  1  0     0  0
 15 20  2  0     0  0
 15 21  1  0     0  0
 15 26  1  0     0  0
 16 20  1  0     0  0
 17 21  2  0     0  0
 18 22  1  0     0  0
 19 23  2  0     0  0
 22 24  2  0     0  0
 23 24  1  0     0  0
 25 27  1  0     0  0
 30 32  1  0     0  0
 31 33  1  0     0  0
M  END
> <standard_type>
pIC50

> <# Confs.>
25

> <canonical_smiles>
O=C(N1CC(C(NC(C2=CC=C(N3CCN(C)CC3)C=C2)=O)=NN4)=C4C1)[C@H](F)C5=CC=CC=C5

> <standard_relation>
=

> <Publication_ID>
nan

> <predicted_activity_value>
6.292429823902063

> <actual_activity_value>
6.522878745280337

> <Compound>
15

> <standard_units>
nM

> hash
7649752598964339451

$$$$
14
XXILIB    08252103493D 0   0.00000     0.00000

 34 38  0     1  0            999 V2000
    3.3060    1.1636    5.9317 F   0  0  0  0  0  1           0  0  0
   -0.3116    0.0000    2.2959 O   0  0  0  0  0  2           0  0  0
    5.4534    0.0278    4.4054 O   0  0  0  0  0  2           0  0  0
    3.3931    0.0019   -0.7454 N   0  0  0  0  0  3           0  0  0
    2.0987    0.0000   -1.1466 N   0  0  0  0  0  3           0  0  0
   -6.4391    0.0492    0.5071 N   0  0  1  0  0  3           0  0  0
    0.0000    0.0000    0.0000 N   0  0  0  0  0  3           0  0  0
    3.7470    0.0090    2.8269 N   0  0  2  0  0  3           0  0  0
   -9.2690    0.3465    0.2834 N   0  0  1  0  0  3           0  0  0
    1.3840   -0.0000    0.0000 C   0  0  0  0  0  4           0  0  0
    3.5006    0.0061    0.5950 C   0  0  0  0  0  4           0  0  0
   -5.0666    0.0337    0.6537 C   0  0  0  0  0  4           0  0  0
    2.2422    0.0013    1.1104 C   0  0  0  0  0  4           0  0  0
    3.2358   -1.2125    6.0183 C   0  0  0  0  0  4           0  0  0
   -2.2291   -0.0022    0.9550 C   0  0  0  0  0  4           0  0  0
   -4.2218   -0.5167   -0.3282 C   0  0  0  0  0  4           0  0  0
   -4.4348    0.5675    1.7918 C   0  0  0  0  0  4           0  0  0
    3.9953   -1.2425    7.1956 C   0  0  0  0  0  4           0  0  0
    2.5031   -2.3511    5.6542 C   0  0  0  0  0  4           0  0  0
   -2.8273   -0.5380   -0.1862 C   0  0  0  0  0  4           0  0  0
   -3.0421    0.5524    1.9448 C   0  0  0  0  0  4           0  0  0
    4.0311   -2.3929    7.9859 C   0  0  0  0  0  4           0  0  0
    2.5397   -3.5003    6.4457 C   0  0  0  0  0  4           0  0  0
    3.3047   -3.5215    7.6103 C   0  0  0  0  0  4           0  0  0
    3.1803    0.0315    5.1756 C   0  0  2  0  0  4           0  0  0
   -0.7592    0.0000    1.1511 C   0  0  0  0  0  4           0  0  0
    4.2583    0.0168    4.1132 C   0  0  0  0  0  4           0  0  0
    4.5778    0.0126    1.5794 C   0  0  0  0  0  4           0  0  0
    2.2697    0.0003    2.5765 C   0  0  0  0  0  4           0  0  0
   -7.2818   -0.0111    1.7065 C   0  0  0  0  0  4           0  0  0
   -7.0193    0.6918   -0.6771 C   0  0  0  0  0  4           0  0  0
   -8.6998   -0.4697    1.3614 C   0  0  0  0  0  4           0  0  0
   -8.4481    0.2048   -0.9243 C   0  0  0  0  0  4           0  0  0
  -10.6506   -0.0486    0.0133 C   0  0  0  0  0  4           0  0  0
  1 25  1  0     0  0
  2 26  2  0     0  0
  3 27  2  0     0  0
  4  5  1  0     0  0
  4 11  1  0     0  0
  5 10  2  0     0  0
  6 12  1  0     0  0
  6 30  1  0     0  0
  6 31  1  0     0  0
  7 10  1  0     0  0
  7 26  1  0     0  0
  8 27  1  0     0  0
  8 28  1  0     0  0
  8 29  1  0     0  0
  9 32  1  0     0  0
  9 33  1  0     0  0
  9 34  1  0     0  0
 10 13  1  0     0  0
 11 13  2  0     0  0
 11 28  1  0     0  0
 12 16  2  0     0  0
 12 17  1  0     0  0
 13 29  1  0     0  0
 14 18  2  0     0  0
 14 19  1  0     0  0
 14 25  1  0     0  0
 15 20  2  0     0  0
 15 21  1  0     0  0
 15 26  1  0     0  0
 16 20  1  0     0  0
 17 21  2  0     0  0
 18 22  1  0     0  0
 19 23  2  0     0  0
 22 24  2  0     0  0
 23 24  1  0     0  0
 25 27  1  0     0  0
 30 32  1  0     0  0
 31 33  1  0     0  0
M  END
> <standard_type>
pIC50

> <# Confs.>
25

> <canonical_smiles>
O=C(N1CC(C(NC(C2=CC=C(N3CCN(C)CC3)C=C2)=O)=NN4)=C4C1)[C@H](F)C5=CC=CC=C5

> <standard_relation>
=

> <Publication_ID>
nan

> <predicted_activity_value>
6.292429823902063

> <actual_activity_value>
6.522878745280337

> <Compound>
15

> <standard_units>
nM

> hash
7649752598964339451

$$$$
13
XXILIB    08252103493D 0   0.00000     0.00000

 37 41  0     1  0            999 V2000
    2.0098   -0.3950   -6.9259 S   0  0  1  0  0  6           0  0  0
    3.3437   -0.7867   -7.3397 O   0  0  0  0  0  2           0  0  0
    0.8587   -0.6810   -7.7617 O   0  0  0  0  0  2           0  0  0
   -3.0326    0.2836    0.0281 O   0  0  0  0  0  2           0  0  0
    1.7303   -0.9669   -5.3341 N   0  0  0  0  0  3           0  0  0
   -2.7922    0.1530   -2.2932 N   0  0  0  0  0  3           0  0  0
    1.3753   -0.0000    0.0000 N   0  0  0  0  0  3           0  0  0
    5.4436    3.4903   -3.7549 N   0  0  1  0  0  3           0  0  0
    0.5418   -0.5832   -4.6213 C   0  0  0  0  0  4           0  0  0
   -1.7401   -0.0457   -3.1832 C   0  0  0  0  0  4           0  0  0
    2.2955    0.5267   -0.9123 C   0  0  0  0  0  4           0  0  0
   -0.5289   -0.1810   -2.5011 C   0  0  0  0  0  4           0  0  0
   -0.5525    0.0000    1.3572 C   0  0  0  0  0  4           0  0  0
    4.2238    1.5242   -2.7348 C   0  0  0  0  0  4           0  0  0
    0.6139   -0.4977   -3.2190 C   0  0  0  0  0  4           0  0  0
   -0.6936   -0.4309   -5.2805 C   0  0  0  0  0  4           0  0  0
   -1.8532   -0.1554   -4.5570 C   0  0  0  0  0  4           0  0  0
    2.0296    1.6591   -1.6965 C   0  0  0  0  0  4           0  0  0
    3.5434   -0.0984   -1.0614 C   0  0  0  0  0  4           0  0  0
   -0.8195    1.2094    2.0131 C   0  0  0  0  0  4           0  0  0
   -0.8140   -1.2101    2.0145 C   0  0  0  0  0  4           0  0  0
    2.9800    2.1500   -2.5984 C   0  0  0  0  0  4           0  0  0
    4.4949    0.3908   -1.9614 C   0  0  0  0  0  4           0  0  0
   -1.3475    1.2066    3.3055 C   0  0  0  0  0  4           0  0  0
   -1.3430   -1.2085    3.3063 C   0  0  0  0  0  4           0  0  0
   -1.6104   -0.0012    3.9503 C   0  0  0  0  0  4           0  0  0
    2.0298    1.3595   -6.6166 C   0  0  0  0  0  4           0  0  0
   -2.3506    0.1527   -0.9722 C   0  0  0  0  0  4           0  0  0
    0.0000    0.0000    0.0000 C   0  0  0  0  0  4           0  0  0
    5.2361    2.0388   -3.7202 C   0  0  0  0  0  4           0  0  0
    5.9017    3.9631   -2.4380 C   0  0  0  0  0  4           0  0  0
    6.4025    3.8763   -4.8050 C   0  0  0  0  0  4           0  0  0
   -0.8384   -0.0207   -1.0635 C   0  0  0  0  0  4           0  0  0
    6.0656    5.4831   -2.4146 C   0  0  0  0  0  4           0  0  0
    6.5859    5.3945   -4.8625 C   0  0  0  0  0  4           0  0  0
    7.0096    5.9584   -3.5116 C   0  0  0  0  0  4           0  0  0
    2.4191    2.1414   -7.8557 C   0  0  0  0  0  4           0  0  0
  1  2  2  0     0  0
  1  3  2  0     0  0
  1  5  1  0     0  0
  1 27  1  0     0  0
  4 28  2  0     0  0
  5  9  1  0     0  0
  6 10  1  0     0  0
  6 28  1  0     0  0
  7 11  1  0     0  0
  7 29  1  0     0  0
  8 30  1  0     0  0
  8 31  1  0     0  0
  8 32  1  0     0  0
  9 15  2  0     0  0
  9 16  1  0     0  0
 10 12  2  0     0  0
 10 17  1  0     0  0
 11 18  1  0     0  0
 11 19  2  0     0  0
 12 15  1  0     0  0
 12 33  1  0     0  0
 13 20  2  0     0  0
 13 21  1  0     0  0
 13 29  1  0     0  0
 14 22  1  0     0  0
 14 23  2  0     0  0
 14 30  1  0     0  0
 16 17  2  0     0  0
 18 22  2  0     0  0
 19 23  1  0     0  0
 20 24  1  0     0  0
 21 25  2  0     0  0
 24 26  2  0     0  0
 25 26  1  0     0  0
 27 37  1  0     0  0
 28 33  1  0     0  0
 29 33  2  0     0  0
 31 34  1  0     0  0
 32 35  1  0     0  0
 34 36  1  0     0  0
 35 36  1  0     0  0
M  END
> <standard_type>
pIC50

> <# Confs.>
25

> <canonical_smiles>
O=C1NC2=C(C=C(NS(=O)(CC)=O)C=C2)/C1=C(C3=CC=CC=C3)/NC(C=C4)=CC=C4CN5CCCCC5

> <standard_relation>
=

> <Publication_ID>
nan

> <predicted_activity_value>
6.522878745280337

> <actual_activity_value>
6.6020599913279625

> <Compound>
14

> <standard_units>
nM

> hash
13289132667909043912

$$$$
13
XXILIB    08252103493D 0   0.00000     0.00000

 37 41  0     1  0            999 V2000
    2.0098   -0.3950   -6.9259 S   0  0  1  0  0  6           0  0  0
    3.3437   -0.7867   -7.3397 O   0  0  0  0  0  2           0  0  0
    0.8587   -0.6810   -7.7617 O   0  0  0  0  0  2           0  0  0
   -3.0326    0.2836    0.0281 O   0  0  0  0  0  2           0  0  0
    1.7303   -0.9669   -5.3341 N   0  0  0  0  0  3           0  0  0
   -2.7922    0.1530   -2.2932 N   0  0  0  0  0  3           0  0  0
    1.3753   -0.0000    0.0000 N   0  0  0  0  0  3           0  0  0
    6.6194    2.1518   -3.2460 N   0  0  1  0  0  3           0  0  0
    0.5418   -0.5832   -4.6213 C   0  0  0  0  0  4           0  0  0
   -1.7401   -0.0457   -3.1832 C   0  0  0  0  0  4           0  0  0
    2.2955    0.5267   -0.9123 C   0  0  0  0  0  4           0  0  0
   -0.5289   -0.1810   -2.5011 C   0  0  0  0  0  4           0  0  0
   -0.5525    0.0000    1.3572 C   0  0  0  0  0  4           0  0  0
    4.2238    1.5242   -2.7348 C   0  0  0  0  0  4           0  0  0
    0.6139   -0.4977   -3.2190 C   0  0  0  0  0  4           0  0  0
   -0.6936   -0.4309   -5.2805 C   0  0  0  0  0  4           0  0  0
   -1.8532   -0.1554   -4.5570 C   0  0  0  0  0  4           0  0  0
    2.0296    1.6591   -1.6965 C   0  0  0  0  0  4           0  0  0
    3.5434   -0.0984   -1.0614 C   0  0  0  0  0  4           0  0  0
   -0.8195    1.2094    2.0131 C   0  0  0  0  0  4           0  0  0
   -0.8140   -1.2101    2.0145 C   0  0  0  0  0  4           0  0  0
    2.9800    2.1500   -2.5984 C   0  0  0  0  0  4           0  0  0
    4.4949    0.3908   -1.9614 C   0  0  0  0  0  4           0  0  0
   -1.3475    1.2066    3.3055 C   0  0  0  0  0  4           0  0  0
   -1.3430   -1.2085    3.3063 C   0  0  0  0  0  4           0  0  0
   -1.6104   -0.0012    3.9503 C   0  0  0  0  0  4           0  0  0
    2.0298    1.3595   -6.6166 C   0  0  0  0  0  4           0  0  0
   -2.3506    0.1527   -0.9722 C   0  0  0  0  0  4           0  0  0
    0.0000    0.0000    0.0000 C   0  0  0  0  0  4           0  0  0
    5.2361    2.0388   -3.7202 C   0  0  0  0  0  4           0  0  0
    7.4789    2.6672   -4.3248 C   0  0  0  0  0  4           0  0  0
    6.7155    3.0116   -2.0532 C   0  0  0  0  0  4           0  0  0
   -0.8384   -0.0207   -1.0635 C   0  0  0  0  0  4           0  0  0
    8.9430    2.7363   -3.8895 C   0  0  0  0  0  4           0  0  0
    8.1547    3.0948   -1.5399 C   0  0  0  0  0  4           0  0  0
    9.1098    3.5725   -2.6271 C   0  0  0  0  0  4           0  0  0
    2.4191    2.1414   -7.8557 C   0  0  0  0  0  4           0  0  0
  1  2  2  0     0  0
  1  3  2  0     0  0
  1  5  1  0     0  0
  1 27  1  0     0  0
  4 28  2  0     0  0
  5  9  1  0     0  0
  6 10  1  0     0  0
  6 28  1  0     0  0
  7 11  1  0     0  0
  7 29  1  0     0  0
  8 30  1  0     0  0
  8 31  1  0     0  0
  8 32  1  0     0  0
  9 15  2  0     0  0
  9 16  1  0     0  0
 10 12  2  0     0  0
 10 17  1  0     0  0
 11 18  1  0     0  0
 11 19  2  0     0  0
 12 15  1  0     0  0
 12 33  1  0     0  0
 13 20  2  0     0  0
 13 21  1  0     0  0
 13 29  1  0     0  0
 14 22  1  0     0  0
 14 23  2  0     0  0
 14 30  1  0     0  0
 16 17  2  0     0  0
 18 22  2  0     0  0
 19 23  1  0     0  0
 20 24  1  0     0  0
 21 25  2  0     0  0
 24 26  2  0     0  0
 25 26  1  0     0  0
 27 37  1  0     0  0
 28 33  1  0     0  0
 29 33  2  0     0  0
 31 34  1  0     0  0
 32 35  1  0     0  0
 34 36  1  0     0  0
 35 36  1  0     0  0
M  END
> <standard_type>
pIC50

> <# Confs.>
25

> <canonical_smiles>
O=C1NC2=C(C=C(NS(=O)(CC)=O)C=C2)/C1=C(C3=CC=CC=C3)/NC(C=C4)=CC=C4CN5CCCCC5

> <standard_relation>
=

> <Publication_ID>
nan

> <predicted_activity_value>
6.522878745280337

> <actual_activity_value>
6.6020599913279625

> <Compound>
14

> <standard_units>
nM

> hash
13289132667909043912

$$$$
13
XXILIB    08252103493D 0   0.00000     0.00000

 37 41  0     1  0            999 V2000
    2.4338   -1.8377   -5.9219 S   0  0  1  0  0  6           0  0  0
    1.2796   -2.7163   -5.9227 O   0  0  0  0  0  2           0  0  0
    3.2928   -1.7386   -7.0870 O   0  0  0  0  0  2           0  0  0
   -3.0463    0.1214   -0.0891 O   0  0  0  0  0  2           0  0  0
    1.9414   -0.2723   -5.4263 N   0  0  0  0  0  3           0  0  0
   -2.7103    0.1360   -2.3982 N   0  0  0  0  0  3           0  0  0
    1.3753   -0.0000    0.0000 N   0  0  0  0  0  3           0  0  0
    6.3852   -4.0498    0.9481 N   0  0  1  0  0  3           0  0  0
    0.7454   -0.0984   -4.6470 C   0  0  0  0  0  4           0  0  0
   -1.6164    0.0748   -3.2553 C   0  0  0  0  0  4           0  0  0
    2.2955   -1.0535    0.0000 C   0  0  0  0  0  4           0  0  0
   -0.4194   -0.0095   -2.5372 C   0  0  0  0  0  4           0  0  0
   -0.6222    0.0000    1.3267 C   0  0  0  0  0  4           0  0  0
    4.2330   -3.1225   -0.0019 C   0  0  0  0  0  4           0  0  0
    0.7716   -0.1270   -3.2392 C   0  0  0  0  0  4           0  0  0
   -0.4795   -0.0277   -5.3359 C   0  0  0  0  0  4           0  0  0
   -1.6796    0.0687   -4.6371 C   0  0  0  0  0  4           0  0  0
    1.9109   -2.4025    0.0000 C   0  0  0  0  0  4           0  0  0
    3.6684   -0.7608    0.0031 C   0  0  0  0  0  4           0  0  0
   -0.9229    1.2094    1.9678 C   0  0  0  0  0  4           0  0  0
   -0.9175   -1.2101    1.9695 C   0  0  0  0  0  4           0  0  0
    2.8669   -3.4241    0.0022 C   0  0  0  0  0  4           0  0  0
    4.6254   -1.7800    0.0044 C   0  0  0  0  0  4           0  0  0
   -1.5173    1.2066    3.2311 C   0  0  0  0  0  4           0  0  0
   -1.5128   -1.2085    3.2321 C   0  0  0  0  0  4           0  0  0
   -1.8134   -0.0012    3.8613 C   0  0  0  0  0  4           0  0  0
    3.4567   -2.2854   -4.5336 C   0  0  0  0  0  4           0  0  0
   -2.3174    0.0934   -1.0641 C   0  0  0  0  0  4           0  0  0
    0.0000   -0.0000    0.0000 C   0  0  0  0  0  4           0  0  0
    5.2598   -4.2205    0.0231 C   0  0  0  0  0  4           0  0  0
    5.8873   -3.9460    2.3298 C   0  0  0  0  0  4           0  0  0
    7.3564   -5.1516    0.8300 C   0  0  0  0  0  4           0  0  0
   -0.7924    0.0151   -1.1011 C   0  0  0  0  0  4           0  0  0
    7.0273   -3.7000    3.3187 C   0  0  0  0  0  4           0  0  0
    8.5474   -4.9486    1.7693 C   0  0  0  0  0  4           0  0  0
    8.0970   -4.7796    3.2153 C   0  0  0  0  0  4           0  0  0
    3.9238   -3.7249   -4.6241 C   0  0  0  0  0  4           0  0  0
  1  2  2  0     0  0
  1  3  2  0     0  0
  1  5  1  0     0  0
  1 27  1  0     0  0
  4 28  2  0     0  0
  5  9  1  0     0  0
  6 10  1  0     0  0
  6 28  1  0     0  0
  7 11  1  0     0  0
  7 29  1  0     0  0
  8 30  1  0     0  0
  8 31  1  0     0  0
  8 32  1  0     0  0
  9 15  2  0     0  0
  9 16  1  0     0  0
 10 12  2  0     0  0
 10 17  1  0     0  0
 11 18  1  0     0  0
 11 19  2  0     0  0
 12 15  1  0     0  0
 12 33  1  0     0  0
 13 20  2  0     0  0
 13 21  1  0     0  0
 13 29  1  0     0  0
 14 22  1  0     0  0
 14 23  2  0     0  0
 14 30  1  0     0  0
 16 17  2  0     0  0
 18 22  2  0     0  0
 19 23  1  0     0  0
 20 24  1  0     0  0
 21 25  2  0     0  0
 24 26  2  0     0  0
 25 26  1  0     0  0
 27 37  1  0     0  0
 28 33  1  0     0  0
 29 33  2  0     0  0
 31 34  1  0     0  0
 32 35  1  0     0  0
 34 36  1  0     0  0
 35 36  1  0     0  0
M  END
> <standard_type>
pIC50

> <# Confs.>
25

> <canonical_smiles>
O=C1NC2=C(C=C(NS(=O)(CC)=O)C=C2)/C1=C(C3=CC=CC=C3)/NC(C=C4)=CC=C4CN5CCCCC5

> <standard_relation>
=

> <Publication_ID>
nan

> <predicted_activity_value>
6.522878745280337

> <actual_activity_value>
6.6020599913279625

> <Compound>
14

> <standard_units>
nM

> hash
13289132667909043912

$$$$
13
XXILIB    08252103493D 0   0.00000     0.00000

 37 41  0     1  0            999 V2000
   -7.2559   -0.0780    0.2134 S   0  0  1  0  0  6           0  0  0
   -8.0149    0.2265    1.4114 O   0  0  0  0  0  2           0  0  0
   -7.7902    0.2240   -1.1014 O   0  0  0  0  0  2           0  0  0
    0.7550   -0.4472   -2.8892 O   0  0  0  0  0  2           0  0  0
   -5.6819    0.5833    0.3686 N   0  0  0  0  0  3           0  0  0
   -1.5426   -0.2637   -3.2550 N   0  0  0  0  0  3           0  0  0
    1.3753    0.0000   -0.0000 N   0  0  0  0  0  3           0  0  0
    6.6194   -2.1518    3.2460 N   0  0  1  0  0  3           0  0  0
   -4.6711    0.2940   -0.6126 C   0  0  0  0  0  4           0  0  0
   -2.6742   -0.0870   -2.4646 C   0  0  0  0  0  4           0  0  0
    2.2955   -0.5267    0.9123 C   0  0  0  0  0  4           0  0  0
   -2.3263    0.0539   -1.1190 C   0  0  0  0  0  4           0  0  0
   -0.5424   -0.0000    1.3613 C   0  0  0  0  0  4           0  0  0
    4.2238   -1.5242    2.7348 C   0  0  0  0  0  4           0  0  0
   -3.3303    0.2732   -0.1875 C   0  0  0  0  0  4           0  0  0
   -4.9864    0.1630   -1.9787 C   0  0  0  0  0  4           0  0  0
   -3.9788   -0.0385   -2.9208 C   0  0  0  0  0  4           0  0  0
    2.0296   -1.6591    1.6965 C   0  0  0  0  0  4           0  0  0
    3.5434    0.0984    1.0614 C   0  0  0  0  0  4           0  0  0
   -0.2428    1.0473    2.2430 C   0  0  0  0  0  4           0  0  0
   -1.3618   -1.0508    1.7962 C   0  0  0  0  0  4           0  0  0
    2.9800   -2.1500    2.5984 C   0  0  0  0  0  4           0  0  0
    4.4949   -0.3908    1.9614 C   0  0  0  0  0  4           0  0  0
   -0.7622    1.0458    3.5388 C   0  0  0  0  0  4           0  0  0
   -1.8800   -1.0480    3.0924 C   0  0  0  0  0  4           0  0  0
   -1.5813    0.0000    3.9620 C   0  0  0  0  0  4           0  0  0
   -6.8581   -1.8143    0.2486 C   0  0  0  0  0  4           0  0  0
   -0.3798   -0.2616   -2.4893 C   0  0  0  0  0  4           0  0  0
    0.0000    0.0000   -0.0000 C   0  0  0  0  0  4           0  0  0
    5.2361   -2.0388    3.7202 C   0  0  0  0  0  4           0  0  0
    7.4789   -2.6672    4.3248 C   0  0  0  0  0  4           0  0  0
    6.7155   -3.0116    2.0532 C   0  0  0  0  0  4           0  0  0
   -0.8472   -0.0364   -1.0574 C   0  0  0  0  0  4           0  0  0
    8.9430   -2.7363    3.8895 C   0  0  0  0  0  4           0  0  0
    8.1547   -3.0948    1.5399 C   0  0  0  0  0  4           0  0  0
    9.1098   -3.5725    2.6271 C   0  0  0  0  0  4           0  0  0
   -8.1067   -2.6736    0.2818 C   0  0  0  0  0  4           0  0  0
  1  2  2  0     0  0
  1  3  2  0     0  0
  1  5  1  0     0  0
  1 27  1  0     0  0
  4 28  2  0     0  0
  5  9  1  0     0  0
  6 10  1  0     0  0
  6 28  1  0     0  0
  7 11  1  0     0  0
  7 29  1  0     0  0
  8 30  1  0     0  0
  8 31  1  0     0  0
  8 32  1  0     0  0
  9 15  2  0     0  0
  9 16  1  0     0  0
 10 12  2  0     0  0
 10 17  1  0     0  0
 11 18  1  0     0  0
 11 19  2  0     0  0
 12 15  1  0     0  0
 12 33  1  0     0  0
 13 20  2  0     0  0
 13 21  1  0     0  0
 13 29  1  0     0  0
 14 22  1  0     0  0
 14 23  2  0     0  0
 14 30  1  0     0  0
 16 17  2  0     0  0
 18 22  2  0     0  0
 19 23  1  0     0  0
 20 24  1  0     0  0
 21 25  2  0     0  0
 24 26  2  0     0  0
 25 26  1  0     0  0
 27 37  1  0     0  0
 28 33  1  0     0  0
 29 33  2  0     0  0
 31 34  1  0     0  0
 32 35  1  0     0  0
 34 36  1  0     0  0
 35 36  1  0     0  0
M  END
> <standard_type>
pIC50

> <# Confs.>
25

> <canonical_smiles>
O=C1NC2=C(C=C(NS(=O)(CC)=O)C=C2)/C1=C(C3=CC=CC=C3)/NC(C=C4)=CC=C4CN5CCCCC5

> <standard_relation>
=

> <Publication_ID>
nan

> <predicted_activity_value>
6.522878745280337

> <actual_activity_value>
6.6020599913279625

> <Compound>
14

> <standard_units>
nM

> hash
13289132667909043912

$$$$
13
XXILIB    08252103493D 0   0.00000     0.00000

 37 41  0     1  0            999 V2000
    2.6200    1.6472   -5.7969 S   0  0  1  0  0  6           0  0  0
    3.9571    1.4706   -6.3307 O   0  0  0  0  0  2           0  0  0
    1.6197    2.3981   -6.5322 O   0  0  0  0  0  2           0  0  0
   -3.0490   -0.0322   -0.0846 O   0  0  0  0  0  2           0  0  0
    1.9901    0.1151   -5.3552 N   0  0  0  0  0  3           0  0  0
   -2.7179   -0.0340   -2.3940 N   0  0  0  0  0  3           0  0  0
    1.3753   -0.0000   -0.0000 N   0  0  0  0  0  3           0  0  0
    6.3884    4.0889    0.9045 N   0  0  1  0  0  3           0  0  0
    0.7387    0.0176   -4.6535 C   0  0  0  0  0  4           0  0  0
   -1.6242   -0.0162   -3.2535 C   0  0  0  0  0  4           0  0  0
    2.2955    1.0535    0.0000 C   0  0  0  0  0  4           0  0  0
   -0.4228    0.0042   -2.5379 C   0  0  0  0  0  4           0  0  0
   -0.6211   -0.0000    1.3272 C   0  0  0  0  0  4           0  0  0
    4.2330    3.1225    0.0019 C   0  0  0  0  0  4           0  0  0
    0.7694    0.0378   -3.2460 C   0  0  0  0  0  4           0  0  0
   -0.4893    0.0244   -5.3406 C   0  0  0  0  0  4           0  0  0
   -1.6903   -0.0039   -4.6358 C   0  0  0  0  0  4           0  0  0
    1.9109    2.4025    0.0000 C   0  0  0  0  0  4           0  0  0
    3.6684    0.7608   -0.0031 C   0  0  0  0  0  4           0  0  0
   -0.9213    1.2094    1.9686 C   0  0  0  0  0  4           0  0  0
   -0.9159   -1.2101    1.9702 C   0  0  0  0  0  4           0  0  0
    2.8669    3.4241   -0.0022 C   0  0  0  0  0  4           0  0  0
    4.6254    1.7800   -0.0044 C   0  0  0  0  0  4           0  0  0
   -1.5147    1.2066    3.2323 C   0  0  0  0  0  4           0  0  0
   -1.5103   -1.2085    3.2333 C   0  0  0  0  0  4           0  0  0
   -1.8103   -0.0012    3.8628 C   0  0  0  0  0  4           0  0  0
    2.7722    2.3869   -4.1832 C   0  0  0  0  0  4           0  0  0
   -2.3207   -0.0243   -1.0608 C   0  0  0  0  0  4           0  0  0
    0.0000    0.0000    0.0000 C   0  0  0  0  0  4           0  0  0
    5.2598    4.2205   -0.0231 C   0  0  0  0  0  4           0  0  0
    7.2967    5.2381    0.7554 C   0  0  0  0  0  4           0  0  0
    5.9321    3.9682    2.3003 C   0  0  0  0  0  4           0  0  0
   -0.7935   -0.0035   -1.1009 C   0  0  0  0  0  4           0  0  0
    8.5223    5.1041    1.6597 C   0  0  0  0  0  4           0  0  0
    7.1114    3.7923    3.2596 C   0  0  0  0  0  4           0  0  0
    8.1212    4.9249    3.1184 C   0  0  0  0  0  4           0  0  0
    3.4667    3.7329   -4.2483 C   0  0  0  0  0  4           0  0  0
  1  2  2  0     0  0
  1  3  2  0     0  0
  1  5  1  0     0  0
  1 27  1  0     0  0
  4 28  2  0     0  0
  5  9  1  0     0  0
  6 10  1  0     0  0
  6 28  1  0     0  0
  7 11  1  0     0  0
  7 29  1  0     0  0
  8 30  1  0     0  0
  8 31  1  0     0  0
  8 32  1  0     0  0
  9 15  2  0     0  0
  9 16  1  0     0  0
 10 12  2  0     0  0
 10 17  1  0     0  0
 11 18  1  0     0  0
 11 19  2  0     0  0
 12 15  1  0     0  0
 12 33  1  0     0  0
 13 20  2  0     0  0
 13 21  1  0     0  0
 13 29  1  0     0  0
 14 22  1  0     0  0
 14 23  2  0     0  0
 14 30  1  0     0  0
 16 17  2  0     0  0
 18 22  2  0     0  0
 19 23  1  0     0  0
 20 24  1  0     0  0
 21 25  2  0     0  0
 24 26  2  0     0  0
 25 26  1  0     0  0
 27 37  1  0     0  0
 28 33  1  0     0  0
 29 33  2  0     0  0
 31 34  1  0     0  0
 32 35  1  0     0  0
 34 36  1  0     0  0
 35 36  1  0     0  0
M  END
> <standard_type>
pIC50

> <# Confs.>
25

> <canonical_smiles>
O=C1NC2=C(C=C(NS(=O)(CC)=O)C=C2)/C1=C(C3=CC=CC=C3)/NC(C=C4)=CC=C4CN5CCCCC5

> <standard_relation>
=

> <Publication_ID>
nan

> <predicted_activity_value>
6.522878745280337

> <actual_activity_value>
6.6020599913279625

> <Compound>
14

> <standard_units>
nM

> hash
13289132667909043912

$$$$
13
XXILIB    08252103493D 0   0.00000     0.00000

 37 41  0     1  0            999 V2000
   -7.2559   -0.0780    0.2134 S   0  0  1  0  0  6           0  0  0
   -8.0149    0.2265    1.4114 O   0  0  0  0  0  2           0  0  0
   -7.7902    0.2240   -1.1014 O   0  0  0  0  0  2           0  0  0
    0.7550   -0.4472   -2.8892 O   0  0  0  0  0  2           0  0  0
   -5.6819    0.5833    0.3686 N   0  0  0  0  0  3           0  0  0
   -1.5426   -0.2637   -3.2550 N   0  0  0  0  0  3           0  0  0
    1.3753    0.0000    0.0000 N   0  0  0  0  0  3           0  0  0
    4.7404   -2.3770    5.0586 N   0  0  1  0  0  3           0  0  0
   -4.6711    0.2940   -0.6126 C   0  0  0  0  0  4           0  0  0
   -2.6742   -0.0870   -2.4646 C   0  0  0  0  0  4           0  0  0
    2.2955   -0.5267    0.9123 C   0  0  0  0  0  4           0  0  0
   -2.3263    0.0539   -1.1190 C   0  0  0  0  0  4           0  0  0
   -0.5424   -0.0000    1.3613 C   0  0  0  0  0  4           0  0  0
    4.2238   -1.5242    2.7348 C   0  0  0  0  0  4           0  0  0
   -3.3303    0.2732   -0.1875 C   0  0  0  0  0  4           0  0  0
   -4.9864    0.1630   -1.9787 C   0  0  0  0  0  4           0  0  0
   -3.9788   -0.0385   -2.9208 C   0  0  0  0  0  4           0  0  0
    2.0296   -1.6591    1.6965 C   0  0  0  0  0  4           0  0  0
    3.5434    0.0984    1.0614 C   0  0  0  0  0  4           0  0  0
   -0.2428    1.0473    2.2430 C   0  0  0  0  0  4           0  0  0
   -1.3618   -1.0508    1.7962 C   0  0  0  0  0  4           0  0  0
    2.9800   -2.1500    2.5984 C   0  0  0  0  0  4           0  0  0
    4.4949   -0.3908    1.9614 C   0  0  0  0  0  4           0  0  0
   -0.7622    1.0458    3.5388 C   0  0  0  0  0  4           0  0  0
   -1.8800   -1.0480    3.0924 C   0  0  0  0  0  4           0  0  0
   -1.5813    0.0000    3.9620 C   0  0  0  0  0  4           0  0  0
   -6.8581   -1.8143    0.2486 C   0  0  0  0  0  4           0  0  0
   -0.3798   -0.2616   -2.4893 C   0  0  0  0  0  4           0  0  0
    0.0000    0.0000   -0.0000 C   0  0  0  0  0  4           0  0  0
    5.2361   -2.0388    3.7202 C   0  0  0  0  0  4           0  0  0
    5.8497   -2.8624    5.8963 C   0  0  0  0  0  4           0  0  0
    4.0750   -1.2278    5.6971 C   0  0  0  0  0  4           0  0  0
   -0.8472   -0.0364   -1.0574 C   0  0  0  0  0  4           0  0  0
    5.3607   -3.2890    7.2808 C   0  0  0  0  0  4           0  0  0
    3.5259   -1.5971    7.0770 C   0  0  0  0  0  4           0  0  0
    4.6163   -2.1592    7.9810 C   0  0  0  0  0  4           0  0  0
   -8.1067   -2.6736    0.2818 C   0  0  0  0  0  4           0  0  0
  1  2  2  0     0  0
  1  3  2  0     0  0
  1  5  1  0     0  0
  1 27  1  0     0  0
  4 28  2  0     0  0
  5  9  1  0     0  0
  6 10  1  0     0  0
  6 28  1  0     0  0
  7 11  1  0     0  0
  7 29  1  0     0  0
  8 30  1  0     0  0
  8 31  1  0     0  0
  8 32  1  0     0  0
  9 15  2  0     0  0
  9 16  1  0     0  0
 10 12  2  0     0  0
 10 17  1  0     0  0
 11 18  1  0     0  0
 11 19  2  0     0  0
 12 15  1  0     0  0
 12 33  1  0     0  0
 13 20  2  0     0  0
 13 21  1  0     0  0
 13 29  1  0     0  0
 14 22  1  0     0  0
 14 23  2  0     0  0
 14 30  1  0     0  0
 16 17  2  0     0  0
 18 22  2  0     0  0
 19 23  1  0     0  0
 20 24  1  0     0  0
 21 25  2  0     0  0
 24 26  2  0     0  0
 25 26  1  0     0  0
 27 37  1  0     0  0
 28 33  1  0     0  0
 29 33  2  0     0  0
 31 34  1  0     0  0
 32 35  1  0     0  0
 34 36  1  0     0  0
 35 36  1  0     0  0
M  END
> <standard_type>
pIC50

> <# Confs.>
25

> <canonical_smiles>
O=C1NC2=C(C=C(NS(=O)(CC)=O)C=C2)/C1=C(C3=CC=CC=C3)/NC(C=C4)=CC=C4CN5CCCCC5

> <standard_relation>
=

> <Publication_ID>
nan

> <predicted_activity_value>
6.522878745280337

> <actual_activity_value>
6.6020599913279625

> <Compound>
14

> <standard_units>
nM

> hash
13289132667909043912

$$$$
13
XXILIB    08252103493D 0   0.00000     0.00000

 37 41  0     1  0            999 V2000
    2.4338   -1.8377   -5.9219 S   0  0  1  0  0  6           0  0  0
    1.2796   -2.7163   -5.9227 O   0  0  0  0  0  2           0  0  0
    3.2928   -1.7386   -7.0870 O   0  0  0  0  0  2           0  0  0
   -3.0463    0.1214   -0.0891 O   0  0  0  0  0  2           0  0  0
    1.9414   -0.2723   -5.4263 N   0  0  0  0  0  3           0  0  0
   -2.7103    0.1360   -2.3982 N   0  0  0  0  0  3           0  0  0
    1.3753   -0.0000    0.0000 N   0  0  0  0  0  3           0  0  0
    5.0317   -5.3150    0.9724 N   0  0  1  0  0  3           0  0  0
    0.7454   -0.0984   -4.6470 C   0  0  0  0  0  4           0  0  0
   -1.6164    0.0748   -3.2553 C   0  0  0  0  0  4           0  0  0
    2.2955   -1.0535    0.0000 C   0  0  0  0  0  4           0  0  0
   -0.4194   -0.0095   -2.5372 C   0  0  0  0  0  4           0  0  0
   -0.6222    0.0000    1.3267 C   0  0  0  0  0  4           0  0  0
    4.2330   -3.1225   -0.0019 C   0  0  0  0  0  4           0  0  0
    0.7716   -0.1270   -3.2392 C   0  0  0  0  0  4           0  0  0
   -0.4795   -0.0277   -5.3359 C   0  0  0  0  0  4           0  0  0
   -1.6796    0.0687   -4.6371 C   0  0  0  0  0  4           0  0  0
    1.9109   -2.4025    0.0000 C   0  0  0  0  0  4           0  0  0
    3.6684   -0.7608    0.0031 C   0  0  0  0  0  4           0  0  0
   -0.9229    1.2094    1.9678 C   0  0  0  0  0  4           0  0  0
   -0.9175   -1.2101    1.9695 C   0  0  0  0  0  4           0  0  0
    2.8669   -3.4241    0.0022 C   0  0  0  0  0  4           0  0  0
    4.6254   -1.7800    0.0044 C   0  0  0  0  0  4           0  0  0
   -1.5173    1.2066    3.2311 C   0  0  0  0  0  4           0  0  0
   -1.5128   -1.2085    3.2321 C   0  0  0  0  0  4           0  0  0
   -1.8134   -0.0012    3.8613 C   0  0  0  0  0  4           0  0  0
    3.4567   -2.2854   -4.5336 C   0  0  0  0  0  4           0  0  0
   -2.3174    0.0934   -1.0641 C   0  0  0  0  0  4           0  0  0
    0.0000   -0.0000    0.0000 C   0  0  0  0  0  4           0  0  0
    5.2598   -4.2205    0.0231 C   0  0  0  0  0  4           0  0  0
    6.1203   -6.3012    0.8719 C   0  0  0  0  0  4           0  0  0
    4.9104   -4.8181    2.3543 C   0  0  0  0  0  4           0  0  0
   -0.7924    0.0151   -1.1011 C   0  0  0  0  0  4           0  0  0
    5.8838   -7.4929    1.8002 C   0  0  0  0  0  4           0  0  0
    4.6339   -5.9595    3.3354 C   0  0  0  0  0  4           0  0  0
    5.6990   -7.0456    3.2446 C   0  0  0  0  0  4           0  0  0
    3.9238   -3.7249   -4.6241 C   0  0  0  0  0  4           0  0  0
  1  2  2  0     0  0
  1  3  2  0     0  0
  1  5  1  0     0  0
  1 27  1  0     0  0
  4 28  2  0     0  0
  5  9  1  0     0  0
  6 10  1  0     0  0
  6 28  1  0     0  0
  7 11  1  0     0  0
  7 29  1  0     0  0
  8 30  1  0     0  0
  8 31  1  0     0  0
  8 32  1  0     0  0
  9 15  2  0     0  0
  9 16  1  0     0  0
 10 12  2  0     0  0
 10 17  1  0     0  0
 11 18  1  0     0  0
 11 19  2  0     0  0
 12 15  1  0     0  0
 12 33  1  0     0  0
 13 20  2  0     0  0
 13 21  1  0     0  0
 13 29  1  0     0  0
 14 22  1  0     0  0
 14 23  2  0     0  0
 14 30  1  0     0  0
 16 17  2  0     0  0
 18 22  2  0     0  0
 19 23  1  0     0  0
 20 24  1  0     0  0
 21 25  2  0     0  0
 24 26  2  0     0  0
 25 26  1  0     0  0
 27 37  1  0     0  0
 28 33  1  0     0  0
 29 33  2  0     0  0
 31 34  1  0     0  0
 32 35  1  0     0  0
 34 36  1  0     0  0
 35 36  1  0     0  0
M  END
> <standard_type>
pIC50

> <# Confs.>
25

> <canonical_smiles>
O=C1NC2=C(C=C(NS(=O)(CC)=O)C=C2)/C1=C(C3=CC=CC=C3)/NC(C=C4)=CC=C4CN5CCCCC5

> <standard_relation>
=

> <Publication_ID>
nan

> <predicted_activity_value>
6.522878745280337

> <actual_activity_value>
6.6020599913279625

> <Compound>
14

> <standard_units>
nM

> hash
13289132667909043912

$$$$
13
XXILIB    08252103493D 0   0.00000     0.00000

 37 41  0     1  0            999 V2000
   -7.2559   -0.0780    0.2134 S   0  0  1  0  0  6           0  0  0
   -8.0149    0.2265    1.4114 O   0  0  0  0  0  2           0  0  0
   -7.7902    0.2240   -1.1014 O   0  0  0  0  0  2           0  0  0
    0.7550   -0.4472   -2.8892 O   0  0  0  0  0  2           0  0  0
   -5.6819    0.5833    0.3686 N   0  0  0  0  0  3           0  0  0
   -1.5426   -0.2637   -3.2550 N   0  0  0  0  0  3           0  0  0
    1.3753    0.0000   -0.0000 N   0  0  0  0  0  3           0  0  0
    5.4436   -3.4903    3.7549 N   0  0  1  0  0  3           0  0  0
   -4.6711    0.2940   -0.6126 C   0  0  0  0  0  4           0  0  0
   -2.6742   -0.0870   -2.4646 C   0  0  0  0  0  4           0  0  0
    2.2955   -0.5267    0.9123 C   0  0  0  0  0  4           0  0  0
   -2.3263    0.0539   -1.1190 C   0  0  0  0  0  4           0  0  0
   -0.5424   -0.0000    1.3613 C   0  0  0  0  0  4           0  0  0
    4.2238   -1.5242    2.7348 C   0  0  0  0  0  4           0  0  0
   -3.3303    0.2732   -0.1875 C   0  0  0  0  0  4           0  0  0
   -4.9864    0.1630   -1.9787 C   0  0  0  0  0  4           0  0  0
   -3.9788   -0.0385   -2.9208 C   0  0  0  0  0  4           0  0  0
    2.0296   -1.6591    1.6965 C   0  0  0  0  0  4           0  0  0
    3.5434    0.0984    1.0614 C   0  0  0  0  0  4           0  0  0
   -0.2428    1.0473    2.2430 C   0  0  0  0  0  4           0  0  0
   -1.3618   -1.0508    1.7962 C   0  0  0  0  0  4           0  0  0
    2.9800   -2.1500    2.5984 C   0  0  0  0  0  4           0  0  0
    4.4949   -0.3908    1.9614 C   0  0  0  0  0  4           0  0  0
   -0.7622    1.0458    3.5388 C   0  0  0  0  0  4           0  0  0
   -1.8800   -1.0480    3.0924 C   0  0  0  0  0  4           0  0  0
   -1.5813    0.0000    3.9620 C   0  0  0  0  0  4           0  0  0
   -6.8581   -1.8143    0.2486 C   0  0  0  0  0  4           0  0  0
   -0.3798   -0.2616   -2.4893 C   0  0  0  0  0  4           0  0  0
    0.0000    0.0000   -0.0000 C   0  0  0  0  0  4           0  0  0
    5.2361   -2.0388    3.7202 C   0  0  0  0  0  4           0  0  0
    5.9017   -3.9631    2.4380 C   0  0  0  0  0  4           0  0  0
    6.4025   -3.8763    4.8050 C   0  0  0  0  0  4           0  0  0
   -0.8472   -0.0364   -1.0574 C   0  0  0  0  0  4           0  0  0
    6.0656   -5.4831    2.4146 C   0  0  0  0  0  4           0  0  0
    6.5859   -5.3945    4.8625 C   0  0  0  0  0  4           0  0  0
    7.0096   -5.9584    3.5116 C   0  0  0  0  0  4           0  0  0
   -8.1067   -2.6736    0.2818 C   0  0  0  0  0  4           0  0  0
  1  2  2  0     0  0
  1  3  2  0     0  0
  1  5  1  0     0  0
  1 27  1  0     0  0
  4 28  2  0     0  0
  5  9  1  0     0  0
  6 10  1  0     0  0
  6 28  1  0     0  0
  7 11  1  0     0  0
  7 29  1  0     0  0
  8 30  1  0     0  0
  8 31  1  0     0  0
  8 32  1  0     0  0
  9 15  2  0     0  0
  9 16  1  0     0  0
 10 12  2  0     0  0
 10 17  1  0     0  0
 11 18  1  0     0  0
 11 19  2  0     0  0
 12 15  1  0     0  0
 12 33  1  0     0  0
 13 20  2  0     0  0
 13 21  1  0     0  0
 13 29  1  0     0  0
 14 22  1  0     0  0
 14 23  2  0     0  0
 14 30  1  0     0  0
 16 17  2  0     0  0
 18 22  2  0     0  0
 19 23  1  0     0  0
 20 24  1  0     0  0
 21 25  2  0     0  0
 24 26  2  0     0  0
 25 26  1  0     0  0
 27 37  1  0     0  0
 28 33  1  0     0  0
 29 33  2  0     0  0
 31 34  1  0     0  0
 32 35  1  0     0  0
 34 36  1  0     0  0
 35 36  1  0     0  0
M  END
> <standard_type>
pIC50

> <# Confs.>
25

> <canonical_smiles>
O=C1NC2=C(C=C(NS(=O)(CC)=O)C=C2)/C1=C(C3=CC=CC=C3)/NC(C=C4)=CC=C4CN5CCCCC5

> <standard_relation>
=

> <Publication_ID>
nan

> <predicted_activity_value>
6.522878745280337

> <actual_activity_value>
6.6020599913279625

> <Compound>
14

> <standard_units>
nM

> hash
13289132667909043912

$$$$
13
XXILIB    08252103493D 0   0.00000     0.00000

 37 41  0     1  0            999 V2000
   -7.2559   -0.0780    0.2134 S   0  0  1  0  0  6           0  0  0
   -8.0149    0.2265    1.4114 O   0  0  0  0  0  2           0  0  0
   -7.7902    0.2240   -1.1014 O   0  0  0  0  0  2           0  0  0
    0.7550   -0.4472   -2.8892 O   0  0  0  0  0  2           0  0  0
   -5.6819    0.5833    0.3686 N   0  0  0  0  0  3           0  0  0
   -1.5426   -0.2637   -3.2550 N   0  0  0  0  0  3           0  0  0
    1.3753    0.0000    0.0000 N   0  0  0  0  0  3           0  0  0
    5.9163   -1.0385    4.5497 N   0  0  1  0  0  3           0  0  0
   -4.6711    0.2940   -0.6126 C   0  0  0  0  0  4           0  0  0
   -2.6742   -0.0870   -2.4646 C   0  0  0  0  0  4           0  0  0
    2.2955   -0.5267    0.9123 C   0  0  0  0  0  4           0  0  0
   -2.3263    0.0539   -1.1190 C   0  0  0  0  0  4           0  0  0
   -0.5424   -0.0000    1.3613 C   0  0  0  0  0  4           0  0  0
    4.2238   -1.5242    2.7348 C   0  0  0  0  0  4           0  0  0
   -3.3303    0.2732   -0.1875 C   0  0  0  0  0  4           0  0  0
   -4.9864    0.1630   -1.9787 C   0  0  0  0  0  4           0  0  0
   -3.9788   -0.0385   -2.9208 C   0  0  0  0  0  4           0  0  0
    2.0296   -1.6591    1.6965 C   0  0  0  0  0  4           0  0  0
    3.5434    0.0984    1.0614 C   0  0  0  0  0  4           0  0  0
   -0.2428    1.0473    2.2430 C   0  0  0  0  0  4           0  0  0
   -1.3618   -1.0508    1.7962 C   0  0  0  0  0  4           0  0  0
    2.9800   -2.1500    2.5984 C   0  0  0  0  0  4           0  0  0
    4.4949   -0.3908    1.9614 C   0  0  0  0  0  4           0  0  0
   -0.7622    1.0458    3.5388 C   0  0  0  0  0  4           0  0  0
   -1.8800   -1.0480    3.0924 C   0  0  0  0  0  4           0  0  0
   -1.5813    0.0000    3.9620 C   0  0  0  0  0  4           0  0  0
   -6.8581   -1.8143    0.2486 C   0  0  0  0  0  4           0  0  0
   -0.3798   -0.2616   -2.4893 C   0  0  0  0  0  4           0  0  0
    0.0000    0.0000   -0.0000 C   0  0  0  0  0  4           0  0  0
    5.2361   -2.0388    3.7202 C   0  0  0  0  0  4           0  0  0
    4.9291   -0.2968    5.3516 C   0  0  0  0  0  4           0  0  0
    6.9313   -1.6560    5.4213 C   0  0  0  0  0  4           0  0  0
   -0.8472   -0.0364   -1.0574 C   0  0  0  0  0  4           0  0  0
    5.5936    0.8021    6.1815 C   0  0  0  0  0  4           0  0  0
    7.6646   -0.6037    6.2561 C   0  0  0  0  0  4           0  0  0
    6.6927    0.2388    7.0733 C   0  0  0  0  0  4           0  0  0
   -8.1067   -2.6736    0.2818 C   0  0  0  0  0  4           0  0  0
  1  2  2  0     0  0
  1  3  2  0     0  0
  1  5  1  0     0  0
  1 27  1  0     0  0
  4 28  2  0     0  0
  5  9  1  0     0  0
  6 10  1  0     0  0
  6 28  1  0     0  0
  7 11  1  0     0  0
  7 29  1  0     0  0
  8 30  1  0     0  0
  8 31  1  0     0  0
  8 32  1  0     0  0
  9 15  2  0     0  0
  9 16  1  0     0  0
 10 12  2  0     0  0
 10 17  1  0     0  0
 11 18  1  0     0  0
 11 19  2  0     0  0
 12 15  1  0     0  0
 12 33  1  0     0  0
 13 20  2  0     0  0
 13 21  1  0     0  0
 13 29  1  0     0  0
 14 22  1  0     0  0
 14 23  2  0     0  0
 14 30  1  0     0  0
 16 17  2  0     0  0
 18 22  2  0     0  0
 19 23  1  0     0  0
 20 24  1  0     0  0
 21 25  2  0     0  0
 24 26  2  0     0  0
 25 26  1  0     0  0
 27 37  1  0     0  0
 28 33  1  0     0  0
 29 33  2  0     0  0
 31 34  1  0     0  0
 32 35  1  0     0  0
 34 36  1  0     0  0
 35 36  1  0     0  0
M  END
> <standard_type>
pIC50

> <# Confs.>
25

> <canonical_smiles>
O=C1NC2=C(C=C(NS(=O)(CC)=O)C=C2)/C1=C(C3=CC=CC=C3)/NC(C=C4)=CC=C4CN5CCCCC5

> <standard_relation>
=

> <Publication_ID>
nan

> <predicted_activity_value>
6.522878745280337

> <actual_activity_value>
6.6020599913279625

> <Compound>
14

> <standard_units>
nM

> hash
13289132667909043912

$$$$
13
XXILIB    08252103493D 0   0.00000     0.00000

 37 41  0     1  0            999 V2000
    2.6200    1.6472   -5.7969 S   0  0  1  0  0  6           0  0  0
    3.9571    1.4706   -6.3307 O   0  0  0  0  0  2           0  0  0
    1.6197    2.3981   -6.5322 O   0  0  0  0  0  2           0  0  0
   -3.0490   -0.0322   -0.0846 O   0  0  0  0  0  2           0  0  0
    1.9901    0.1151   -5.3552 N   0  0  0  0  0  3           0  0  0
   -2.7179   -0.0340   -2.3940 N   0  0  0  0  0  3           0  0  0
    1.3753   -0.0000   -0.0000 N   0  0  0  0  0  3           0  0  0
    5.0349    5.3541    0.8801 N   0  0  1  0  0  3           0  0  0
    0.7387    0.0176   -4.6535 C   0  0  0  0  0  4           0  0  0
   -1.6242   -0.0162   -3.2535 C   0  0  0  0  0  4           0  0  0
    2.2955    1.0535    0.0000 C   0  0  0  0  0  4           0  0  0
   -0.4228    0.0042   -2.5379 C   0  0  0  0  0  4           0  0  0
   -0.6211   -0.0000    1.3272 C   0  0  0  0  0  4           0  0  0
    4.2330    3.1225    0.0019 C   0  0  0  0  0  4           0  0  0
    0.7694    0.0378   -3.2460 C   0  0  0  0  0  4           0  0  0
   -0.4893    0.0244   -5.3406 C   0  0  0  0  0  4           0  0  0
   -1.6903   -0.0039   -4.6358 C   0  0  0  0  0  4           0  0  0
    1.9109    2.4025    0.0000 C   0  0  0  0  0  4           0  0  0
    3.6684    0.7608   -0.0031 C   0  0  0  0  0  4           0  0  0
   -0.9213    1.2094    1.9686 C   0  0  0  0  0  4           0  0  0
   -0.9159   -1.2101    1.9702 C   0  0  0  0  0  4           0  0  0
    2.8669    3.4241   -0.0022 C   0  0  0  0  0  4           0  0  0
    4.6254    1.7800   -0.0044 C   0  0  0  0  0  4           0  0  0
   -1.5147    1.2066    3.2323 C   0  0  0  0  0  4           0  0  0
   -1.5103   -1.2085    3.2333 C   0  0  0  0  0  4           0  0  0
   -1.8103   -0.0012    3.8628 C   0  0  0  0  0  4           0  0  0
    2.7722    2.3869   -4.1832 C   0  0  0  0  0  4           0  0  0
   -2.3207   -0.0243   -1.0608 C   0  0  0  0  0  4           0  0  0
    0.0000    0.0000    0.0000 C   0  0  0  0  0  4           0  0  0
    5.2598    4.2205   -0.0231 C   0  0  0  0  0  4           0  0  0
    4.9960    4.8840    2.2749 C   0  0  0  0  0  4           0  0  0
    6.0659    6.3934    0.7134 C   0  0  0  0  0  4           0  0  0
   -0.7935   -0.0035   -1.1009 C   0  0  0  0  0  4           0  0  0
    4.6964    6.0286    3.2434 C   0  0  0  0  0  4           0  0  0
    5.8047    7.5906    1.6301 C   0  0  0  0  0  4           0  0  0
    5.6992    7.1651    3.0896 C   0  0  0  0  0  4           0  0  0
    3.4667    3.7329   -4.2483 C   0  0  0  0  0  4           0  0  0
  1  2  2  0     0  0
  1  3  2  0     0  0
  1  5  1  0     0  0
  1 27  1  0     0  0
  4 28  2  0     0  0
  5  9  1  0     0  0
  6 10  1  0     0  0
  6 28  1  0     0  0
  7 11  1  0     0  0
  7 29  1  0     0  0
  8 30  1  0     0  0
  8 31  1  0     0  0
  8 32  1  0     0  0
  9 15  2  0     0  0
  9 16  1  0     0  0
 10 12  2  0     0  0
 10 17  1  0     0  0
 11 18  1  0     0  0
 11 19  2  0     0  0
 12 15  1  0     0  0
 12 33  1  0     0  0
 13 20  2  0     0  0
 13 21  1  0     0  0
 13 29  1  0     0  0
 14 22  1  0     0  0
 14 23  2  0     0  0
 14 30  1  0     0  0
 16 17  2  0     0  0
 18 22  2  0     0  0
 19 23  1  0     0  0
 20 24  1  0     0  0
 21 25  2  0     0  0
 24 26  2  0     0  0
 25 26  1  0     0  0
 27 37  1  0     0  0
 28 33  1  0     0  0
 29 33  2  0     0  0
 31 34  1  0     0  0
 32 35  1  0     0  0
 34 36  1  0     0  0
 35 36  1  0     0  0
M  END
> <standard_type>
pIC50

> <# Confs.>
25

> <canonical_smiles>
O=C1NC2=C(C=C(NS(=O)(CC)=O)C=C2)/C1=C(C3=CC=CC=C3)/NC(C=C4)=CC=C4CN5CCCCC5

> <standard_relation>
=

> <Publication_ID>
nan

> <predicted_activity_value>
6.522878745280337

> <actual_activity_value>
6.6020599913279625

> <Compound>
14

> <standard_units>
nM

> hash
13289132667909043912

$$$$
13
XXILIB    08252103493D 0   0.00000     0.00000

 37 41  0     1  0            999 V2000
    2.8587   -1.7147   -5.2973 S   0  0  1  0  0  6           0  0  0
    3.9020   -1.7011   -6.3050 O   0  0  0  0  0  2           0  0  0
    3.1739   -1.9757   -3.9052 O   0  0  0  0  0  2           0  0  0
   -3.0463    0.1214   -0.0891 O   0  0  0  0  0  2           0  0  0
    1.9414   -0.2723   -5.4263 N   0  0  0  0  0  3           0  0  0
   -2.7103    0.1360   -2.3982 N   0  0  0  0  0  3           0  0  0
    1.3753   -0.0000   -0.0000 N   0  0  0  0  0  3           0  0  0
    5.0349    5.3541    0.8801 N   0  0  1  0  0  3           0  0  0
    0.7454   -0.0984   -4.6470 C   0  0  0  0  0  4           0  0  0
   -1.6164    0.0748   -3.2553 C   0  0  0  0  0  4           0  0  0
    2.2955    1.0535    0.0000 C   0  0  0  0  0  4           0  0  0
   -0.4194   -0.0095   -2.5372 C   0  0  0  0  0  4           0  0  0
   -0.6222    0.0000    1.3267 C   0  0  0  0  0  4           0  0  0
    4.2330    3.1225    0.0019 C   0  0  0  0  0  4           0  0  0
    0.7716   -0.1270   -3.2392 C   0  0  0  0  0  4           0  0  0
   -0.4795   -0.0277   -5.3359 C   0  0  0  0  0  4           0  0  0
   -1.6796    0.0687   -4.6371 C   0  0  0  0  0  4           0  0  0
    1.9109    2.4025    0.0000 C   0  0  0  0  0  4           0  0  0
    3.6684    0.7608   -0.0031 C   0  0  0  0  0  4           0  0  0
   -0.9229    1.2094    1.9678 C   0  0  0  0  0  4           0  0  0
   -0.9175   -1.2101    1.9695 C   0  0  0  0  0  4           0  0  0
    2.8669    3.4241   -0.0022 C   0  0  0  0  0  4           0  0  0
    4.6254    1.7800   -0.0044 C   0  0  0  0  0  4           0  0  0
   -1.5173    1.2066    3.2311 C   0  0  0  0  0  4           0  0  0
   -1.5128   -1.2085    3.2321 C   0  0  0  0  0  4           0  0  0
   -1.8134   -0.0012    3.8613 C   0  0  0  0  0  4           0  0  0
    1.6290   -2.9002   -5.8038 C   0  0  0  0  0  4           0  0  0
   -2.3174    0.0934   -1.0641 C   0  0  0  0  0  4           0  0  0
    0.0000    0.0000    0.0000 C   0  0  0  0  0  4           0  0  0
    5.2598    4.2205   -0.0231 C   0  0  0  0  0  4           0  0  0
    4.9960    4.8840    2.2749 C   0  0  0  0  0  4           0  0  0
    6.0659    6.3934    0.7134 C   0  0  0  0  0  4           0  0  0
   -0.7924    0.0151   -1.1011 C   0  0  0  0  0  4           0  0  0
    4.6964    6.0286    3.2434 C   0  0  0  0  0  4           0  0  0
    5.8047    7.5906    1.6301 C   0  0  0  0  0  4           0  0  0
    5.6992    7.1651    3.0896 C   0  0  0  0  0  4           0  0  0
    2.2150   -4.2921   -5.9360 C   0  0  0  0  0  4           0  0  0
  1  2  2  0     0  0
  1  3  2  0     0  0
  1  5  1  0     0  0
  1 27  1  0     0  0
  4 28  2  0     0  0
  5  9  1  0     0  0
  6 10  1  0     0  0
  6 28  1  0     0  0
  7 11  1  0     0  0
  7 29  1  0     0  0
  8 30  1  0     0  0
  8 31  1  0     0  0
  8 32  1  0     0  0
  9 15  2  0     0  0
  9 16  1  0     0  0
 10 12  2  0     0  0
 10 17  1  0     0  0
 11 18  1  0     0  0
 11 19  2  0     0  0
 12 15  1  0     0  0
 12 33  1  0     0  0
 13 20  2  0     0  0
 13 21  1  0     0  0
 13 29  1  0     0  0
 14 22  1  0     0  0
 14 23  2  0     0  0
 14 30  1  0     0  0
 16 17  2  0     0  0
 18 22  2  0     0  0
 19 23  1  0     0  0
 20 24  1  0     0  0
 21 25  2  0     0  0
 24 26  2  0     0  0
 25 26  1  0     0  0
 27 37  1  0     0  0
 28 33  1  0     0  0
 29 33  2  0     0  0
 31 34  1  0     0  0
 32 35  1  0     0  0
 34 36  1  0     0  0
 35 36  1  0     0  0
M  END
> <standard_type>
pIC50

> <# Confs.>
25

> <canonical_smiles>
O=C1NC2=C(C=C(NS(=O)(CC)=O)C=C2)/C1=C(C3=CC=CC=C3)/NC(C=C4)=CC=C4CN5CCCCC5

> <standard_relation>
=

> <Publication_ID>
nan

> <predicted_activity_value>
6.522878745280337

> <actual_activity_value>
6.6020599913279625

> <Compound>
14

> <standard_units>
nM

> hash
13289132667909043912

$$$$
13
XXILIB    08252103493D 0   0.00000     0.00000

 37 41  0     1  0            999 V2000
    2.8587   -1.7147   -5.2973 S   0  0  1  0  0  6           0  0  0
    3.9020   -1.7011   -6.3050 O   0  0  0  0  0  2           0  0  0
    3.1739   -1.9757   -3.9052 O   0  0  0  0  0  2           0  0  0
   -3.0463    0.1214   -0.0891 O   0  0  0  0  0  2           0  0  0
    1.9414   -0.2723   -5.4263 N   0  0  0  0  0  3           0  0  0
   -2.7103    0.1360   -2.3982 N   0  0  0  0  0  3           0  0  0
    1.3753    0.0000   -0.0000 N   0  0  0  0  0  3           0  0  0
    5.0317    5.3150   -0.9724 N   0  0  1  0  0  3           0  0  0
    0.7454   -0.0984   -4.6470 C   0  0  0  0  0  4           0  0  0
   -1.6164    0.0748   -3.2553 C   0  0  0  0  0  4           0  0  0
    2.2955    1.0535   -0.0000 C   0  0  0  0  0  4           0  0  0
   -0.4194   -0.0095   -2.5372 C   0  0  0  0  0  4           0  0  0
   -0.6222    0.0000    1.3267 C   0  0  0  0  0  4           0  0  0
    4.2330    3.1225    0.0019 C   0  0  0  0  0  4           0  0  0
    0.7716   -0.1270   -3.2392 C   0  0  0  0  0  4           0  0  0
   -0.4795   -0.0277   -5.3359 C   0  0  0  0  0  4           0  0  0
   -1.6796    0.0687   -4.6371 C   0  0  0  0  0  4           0  0  0
    1.9109    2.4025    0.0000 C   0  0  0  0  0  4           0  0  0
    3.6684    0.7608   -0.0031 C   0  0  0  0  0  4           0  0  0
   -0.9229    1.2094    1.9678 C   0  0  0  0  0  4           0  0  0
   -0.9175   -1.2101    1.9695 C   0  0  0  0  0  4           0  0  0
    2.8669    3.4241   -0.0022 C   0  0  0  0  0  4           0  0  0
    4.6254    1.7800   -0.0044 C   0  0  0  0  0  4           0  0  0
   -1.5173    1.2066    3.2311 C   0  0  0  0  0  4           0  0  0
   -1.5128   -1.2085    3.2321 C   0  0  0  0  0  4           0  0  0
   -1.8134   -0.0012    3.8613 C   0  0  0  0  0  4           0  0  0
    1.6290   -2.9002   -5.8038 C   0  0  0  0  0  4           0  0  0
   -2.3174    0.0934   -1.0641 C   0  0  0  0  0  4           0  0  0
    0.0000    0.0000    0.0000 C   0  0  0  0  0  4           0  0  0
    5.2598    4.2205   -0.0231 C   0  0  0  0  0  4           0  0  0
    6.1203    6.3012   -0.8719 C   0  0  0  0  0  4           0  0  0
    4.9104    4.8181   -2.3543 C   0  0  0  0  0  4           0  0  0
   -0.7924    0.0151   -1.1011 C   0  0  0  0  0  4           0  0  0
    5.8838    7.4929   -1.8002 C   0  0  0  0  0  4           0  0  0
    4.6339    5.9595   -3.3354 C   0  0  0  0  0  4           0  0  0
    5.6990    7.0456   -3.2446 C   0  0  0  0  0  4           0  0  0
    2.2150   -4.2921   -5.9360 C   0  0  0  0  0  4           0  0  0
  1  2  2  0     0  0
  1  3  2  0     0  0
  1  5  1  0     0  0
  1 27  1  0     0  0
  4 28  2  0     0  0
  5  9  1  0     0  0
  6 10  1  0     0  0
  6 28  1  0     0  0
  7 11  1  0     0  0
  7 29  1  0     0  0
  8 30  1  0     0  0
  8 31  1  0     0  0
  8 32  1  0     0  0
  9 15  2  0     0  0
  9 16  1  0     0  0
 10 12  2  0     0  0
 10 17  1  0     0  0
 11 18  1  0     0  0
 11 19  2  0     0  0
 12 15  1  0     0  0
 12 33  1  0     0  0
 13 20  2  0     0  0
 13 21  1  0     0  0
 13 29  1  0     0  0
 14 22  1  0     0  0
 14 23  2  0     0  0
 14 30  1  0     0  0
 16 17  2  0     0  0
 18 22  2  0     0  0
 19 23  1  0     0  0
 20 24  1  0     0  0
 21 25  2  0     0  0
 24 26  2  0     0  0
 25 26  1  0     0  0
 27 37  1  0     0  0
 28 33  1  0     0  0
 29 33  2  0     0  0
 31 34  1  0     0  0
 32 35  1  0     0  0
 34 36  1  0     0  0
 35 36  1  0     0  0
M  END
> <standard_type>
pIC50

> <# Confs.>
25

> <canonical_smiles>
O=C1NC2=C(C=C(NS(=O)(CC)=O)C=C2)/C1=C(C3=CC=CC=C3)/NC(C=C4)=CC=C4CN5CCCCC5

> <standard_relation>
=

> <Publication_ID>
nan

> <predicted_activity_value>
6.522878745280337

> <actual_activity_value>
6.6020599913279625

> <Compound>
14

> <standard_units>
nM

> hash
13289132667909043912

$$$$
13
XXILIB    08252103493D 0   0.00000     0.00000

 37 41  0     1  0            999 V2000
    3.2553    0.8151   -5.2531 S   0  0  1  0  0  6           0  0  0
    3.1688    1.4554   -3.9544 O   0  0  0  0  0  2           0  0  0
    4.4841    0.1766   -5.6862 O   0  0  0  0  0  2           0  0  0
   -3.0463    0.1214   -0.0891 O   0  0  0  0  0  2           0  0  0
    1.9414   -0.2723   -5.4263 N   0  0  0  0  0  3           0  0  0
   -2.7103    0.1360   -2.3982 N   0  0  0  0  0  3           0  0  0
    1.3753    0.0000    0.0000 N   0  0  0  0  0  3           0  0  0
    5.0349   -5.3541   -0.8801 N   0  0  1  0  0  3           0  0  0
    0.7454   -0.0984   -4.6470 C   0  0  0  0  0  4           0  0  0
   -1.6164    0.0748   -3.2553 C   0  0  0  0  0  4           0  0  0
    2.2955   -1.0535    0.0000 C   0  0  0  0  0  4           0  0  0
   -0.4194   -0.0095   -2.5372 C   0  0  0  0  0  4           0  0  0
   -0.6222    0.0000    1.3267 C   0  0  0  0  0  4           0  0  0
    4.2330   -3.1225   -0.0019 C   0  0  0  0  0  4           0  0  0
    0.7716   -0.1270   -3.2392 C   0  0  0  0  0  4           0  0  0
   -0.4795   -0.0277   -5.3359 C   0  0  0  0  0  4           0  0  0
   -1.6796    0.0687   -4.6371 C   0  0  0  0  0  4           0  0  0
    1.9109   -2.4025    0.0000 C   0  0  0  0  0  4           0  0  0
    3.6684   -0.7608    0.0031 C   0  0  0  0  0  4           0  0  0
   -0.9229    1.2094    1.9678 C   0  0  0  0  0  4           0  0  0
   -0.9175   -1.2101    1.9695 C   0  0  0  0  0  4           0  0  0
    2.8669   -3.4241    0.0022 C   0  0  0  0  0  4           0  0  0
    4.6254   -1.7800    0.0044 C   0  0  0  0  0  4           0  0  0
   -1.5173    1.2066    3.2311 C   0  0  0  0  0  4           0  0  0
   -1.5128   -1.2085    3.2321 C   0  0  0  0  0  4           0  0  0
   -1.8134   -0.0012    3.8613 C   0  0  0  0  0  4           0  0  0
    2.8113    2.0230   -6.4853 C   0  0  0  0  0  4           0  0  0
   -2.3174    0.0934   -1.0641 C   0  0  0  0  0  4           0  0  0
    0.0000    0.0000    0.0000 C   0  0  0  0  0  4           0  0  0
    5.2598   -4.2205    0.0231 C   0  0  0  0  0  4           0  0  0
    4.9960   -4.8840   -2.2749 C   0  0  0  0  0  4           0  0  0
    6.0659   -6.3934   -0.7134 C   0  0  0  0  0  4           0  0  0
   -0.7924    0.0151   -1.1011 C   0  0  0  0  0  4           0  0  0
    4.6964   -6.0286   -3.2434 C   0  0  0  0  0  4           0  0  0
    5.8047   -7.5906   -1.6301 C   0  0  0  0  0  4           0  0  0
    5.6992   -7.1651   -3.0896 C   0  0  0  0  0  4           0  0  0
    3.7405    3.2205   -6.4550 C   0  0  0  0  0  4           0  0  0
  1  2  2  0     0  0
  1  3  2  0     0  0
  1  5  1  0     0  0
  1 27  1  0     0  0
  4 28  2  0     0  0
  5  9  1  0     0  0
  6 10  1  0     0  0
  6 28  1  0     0  0
  7 11  1  0     0  0
  7 29  1  0     0  0
  8 30  1  0     0  0
  8 31  1  0     0  0
  8 32  1  0     0  0
  9 15  2  0     0  0
  9 16  1  0     0  0
 10 12  2  0     0  0
 10 17  1  0     0  0
 11 18  1  0     0  0
 11 19  2  0     0  0
 12 15  1  0     0  0
 12 33  1  0     0  0
 13 20  2  0     0  0
 13 21  1  0     0  0
 13 29  1  0     0  0
 14 22  1  0     0  0
 14 23  2  0     0  0
 14 30  1  0     0  0
 16 17  2  0     0  0
 18 22  2  0     0  0
 19 23  1  0     0  0
 20 24  1  0     0  0
 21 25  2  0     0  0
 24 26  2  0     0  0
 25 26  1  0     0  0
 27 37  1  0     0  0
 28 33  1  0     0  0
 29 33  2  0     0  0
 31 34  1  0     0  0
 32 35  1  0     0  0
 34 36  1  0     0  0
 35 36  1  0     0  0
M  END
> <standard_type>
pIC50

> <# Confs.>
25

> <canonical_smiles>
O=C1NC2=C(C=C(NS(=O)(CC)=O)C=C2)/C1=C(C3=CC=CC=C3)/NC(C=C4)=CC=C4CN5CCCCC5

> <standard_relation>
=

> <Publication_ID>
nan

> <predicted_activity_value>
6.522878745280337

> <actual_activity_value>
6.6020599913279625

> <Compound>
14

> <standard_units>
nM

> hash
13289132667909043912

$$$$
13
XXILIB    08252103493D 0   0.00000     0.00000

 37 41  0     1  0            999 V2000
    2.8587   -1.7147   -5.2973 S   0  0  1  0  0  6           0  0  0
    3.9020   -1.7011   -6.3050 O   0  0  0  0  0  2           0  0  0
    3.1739   -1.9757   -3.9052 O   0  0  0  0  0  2           0  0  0
   -3.0463    0.1214   -0.0891 O   0  0  0  0  0  2           0  0  0
    1.9414   -0.2723   -5.4263 N   0  0  0  0  0  3           0  0  0
   -2.7103    0.1360   -2.3982 N   0  0  0  0  0  3           0  0  0
    1.3753   -0.0000   -0.0000 N   0  0  0  0  0  3           0  0  0
    6.3884    4.0889    0.9045 N   0  0  1  0  0  3           0  0  0
    0.7454   -0.0984   -4.6470 C   0  0  0  0  0  4           0  0  0
   -1.6164    0.0748   -3.2553 C   0  0  0  0  0  4           0  0  0
    2.2955    1.0535    0.0000 C   0  0  0  0  0  4           0  0  0
   -0.4194   -0.0095   -2.5372 C   0  0  0  0  0  4           0  0  0
   -0.6222    0.0000    1.3267 C   0  0  0  0  0  4           0  0  0
    4.2330    3.1225    0.0019 C   0  0  0  0  0  4           0  0  0
    0.7716   -0.1270   -3.2392 C   0  0  0  0  0  4           0  0  0
   -0.4795   -0.0277   -5.3359 C   0  0  0  0  0  4           0  0  0
   -1.6796    0.0687   -4.6371 C   0  0  0  0  0  4           0  0  0
    1.9109    2.4025    0.0000 C   0  0  0  0  0  4           0  0  0
    3.6684    0.7608   -0.0031 C   0  0  0  0  0  4           0  0  0
   -0.9229    1.2094    1.9678 C   0  0  0  0  0  4           0  0  0
   -0.9175   -1.2101    1.9695 C   0  0  0  0  0  4           0  0  0
    2.8669    3.4241   -0.0022 C   0  0  0  0  0  4           0  0  0
    4.6254    1.7800   -0.0044 C   0  0  0  0  0  4           0  0  0
   -1.5173    1.2066    3.2311 C   0  0  0  0  0  4           0  0  0
   -1.5128   -1.2085    3.2321 C   0  0  0  0  0  4           0  0  0
   -1.8134   -0.0012    3.8613 C   0  0  0  0  0  4           0  0  0
    1.6290   -2.9002   -5.8038 C   0  0  0  0  0  4           0  0  0
   -2.3174    0.0934   -1.0641 C   0  0  0  0  0  4           0  0  0
    0.0000    0.0000    0.0000 C   0  0  0  0  0  4           0  0  0
    5.2598    4.2205   -0.0231 C   0  0  0  0  0  4           0  0  0
    7.2967    5.2381    0.7554 C   0  0  0  0  0  4           0  0  0
    5.9321    3.9682    2.3003 C   0  0  0  0  0  4           0  0  0
   -0.7924    0.0151   -1.1011 C   0  0  0  0  0  4           0  0  0
    8.5223    5.1041    1.6597 C   0  0  0  0  0  4           0  0  0
    7.1114    3.7923    3.2596 C   0  0  0  0  0  4           0  0  0
    8.1212    4.9249    3.1184 C   0  0  0  0  0  4           0  0  0
    2.2150   -4.2921   -5.9360 C   0  0  0  0  0  4           0  0  0
  1  2  2  0     0  0
  1  3  2  0     0  0
  1  5  1  0     0  0
  1 27  1  0     0  0
  4 28  2  0     0  0
  5  9  1  0     0  0
  6 10  1  0     0  0
  6 28  1  0     0  0
  7 11  1  0     0  0
  7 29  1  0     0  0
  8 30  1  0     0  0
  8 31  1  0     0  0
  8 32  1  0     0  0
  9 15  2  0     0  0
  9 16  1  0     0  0
 10 12  2  0     0  0
 10 17  1  0     0  0
 11 18  1  0     0  0
 11 19  2  0     0  0
 12 15  1  0     0  0
 12 33  1  0     0  0
 13 20  2  0     0  0
 13 21  1  0     0  0
 13 29  1  0     0  0
 14 22  1  0     0  0
 14 23  2  0     0  0
 14 30  1  0     0  0
 16 17  2  0     0  0
 18 22  2  0     0  0
 19 23  1  0     0  0
 20 24  1  0     0  0
 21 25  2  0     0  0
 24 26  2  0     0  0
 25 26  1  0     0  0
 27 37  1  0     0  0
 28 33  1  0     0  0
 29 33  2  0     0  0
 31 34  1  0     0  0
 32 35  1  0     0  0
 34 36  1  0     0  0
 35 36  1  0     0  0
M  END
> <standard_type>
pIC50

> <# Confs.>
25

> <canonical_smiles>
O=C1NC2=C(C=C(NS(=O)(CC)=O)C=C2)/C1=C(C3=CC=CC=C3)/NC(C=C4)=CC=C4CN5CCCCC5

> <standard_relation>
=

> <Publication_ID>
nan

> <predicted_activity_value>
6.522878745280337

> <actual_activity_value>
6.6020599913279625

> <Compound>
14

> <standard_units>
nM

> hash
13289132667909043912

$$$$
13
XXILIB    08252103493D 0   0.00000     0.00000

 37 41  0     1  0            999 V2000
    2.0098   -0.3950   -6.9259 S   0  0  1  0  0  6           0  0  0
    1.2487    0.8229   -7.1292 O   0  0  0  0  0  2           0  0  0
    3.4288   -0.4430   -7.2250 O   0  0  0  0  0  2           0  0  0
   -3.0326    0.2836    0.0281 O   0  0  0  0  0  2           0  0  0
    1.7303   -0.9669   -5.3341 N   0  0  0  0  0  3           0  0  0
   -2.7922    0.1530   -2.2932 N   0  0  0  0  0  3           0  0  0
    1.3753   -0.0000    0.0000 N   0  0  0  0  0  3           0  0  0
    6.6194    2.1518   -3.2460 N   0  0  1  0  0  3           0  0  0
    0.5418   -0.5832   -4.6213 C   0  0  0  0  0  4           0  0  0
   -1.7401   -0.0457   -3.1832 C   0  0  0  0  0  4           0  0  0
    2.2955    0.5267   -0.9123 C   0  0  0  0  0  4           0  0  0
   -0.5289   -0.1810   -2.5011 C   0  0  0  0  0  4           0  0  0
   -0.5525    0.0000    1.3572 C   0  0  0  0  0  4           0  0  0
    4.2238    1.5242   -2.7348 C   0  0  0  0  0  4           0  0  0
    0.6139   -0.4977   -3.2190 C   0  0  0  0  0  4           0  0  0
   -0.6936   -0.4309   -5.2805 C   0  0  0  0  0  4           0  0  0
   -1.8532   -0.1554   -4.5570 C   0  0  0  0  0  4           0  0  0
    2.0296    1.6591   -1.6965 C   0  0  0  0  0  4           0  0  0
    3.5434   -0.0984   -1.0614 C   0  0  0  0  0  4           0  0  0
   -0.8195    1.2094    2.0131 C   0  0  0  0  0  4           0  0  0
   -0.8140   -1.2101    2.0145 C   0  0  0  0  0  4           0  0  0
    2.9800    2.1500   -2.5984 C   0  0  0  0  0  4           0  0  0
    4.4949    0.3908   -1.9614 C   0  0  0  0  0  4           0  0  0
   -1.3475    1.2066    3.3055 C   0  0  0  0  0  4           0  0  0
   -1.3430   -1.2085    3.3063 C   0  0  0  0  0  4           0  0  0
   -1.6104   -0.0012    3.9503 C   0  0  0  0  0  4           0  0  0
    1.2180   -1.6924   -7.8555 C   0  0  0  0  0  4           0  0  0
   -2.3506    0.1527   -0.9722 C   0  0  0  0  0  4           0  0  0
    0.0000    0.0000    0.0000 C   0  0  0  0  0  4           0  0  0
    5.2361    2.0388   -3.7202 C   0  0  0  0  0  4           0  0  0
    7.4789    2.6672   -4.3248 C   0  0  0  0  0  4           0  0  0
    6.7155    3.0116   -2.0532 C   0  0  0  0  0  4           0  0  0
   -0.8384   -0.0207   -1.0635 C   0  0  0  0  0  4           0  0  0
    8.9430    2.7363   -3.8895 C   0  0  0  0  0  4           0  0  0
    8.1547    3.0948   -1.5399 C   0  0  0  0  0  4           0  0  0
    9.1098    3.5725   -2.6271 C   0  0  0  0  0  4           0  0  0
    1.1731   -1.3718   -9.3366 C   0  0  0  0  0  4           0  0  0
  1  2  2  0     0  0
  1  3  2  0     0  0
  1  5  1  0     0  0
  1 27  1  0     0  0
  4 28  2  0     0  0
  5  9  1  0     0  0
  6 10  1  0     0  0
  6 28  1  0     0  0
  7 11  1  0     0  0
  7 29  1  0     0  0
  8 30  1  0     0  0
  8 31  1  0     0  0
  8 32  1  0     0  0
  9 15  2  0     0  0
  9 16  1  0     0  0
 10 12  2  0     0  0
 10 17  1  0     0  0
 11 18  1  0     0  0
 11 19  2  0     0  0
 12 15  1  0     0  0
 12 33  1  0     0  0
 13 20  2  0     0  0
 13 21  1  0     0  0
 13 29  1  0     0  0
 14 22  1  0     0  0
 14 23  2  0     0  0
 14 30  1  0     0  0
 16 17  2  0     0  0
 18 22  2  0     0  0
 19 23  1  0     0  0
 20 24  1  0     0  0
 21 25  2  0     0  0
 24 26  2  0     0  0
 25 26  1  0     0  0
 27 37  1  0     0  0
 28 33  1  0     0  0
 29 33  2  0     0  0
 31 34  1  0     0  0
 32 35  1  0     0  0
 34 36  1  0     0  0
 35 36  1  0     0  0
M  END
> <standard_type>
pIC50

> <# Confs.>
25

> <canonical_smiles>
O=C1NC2=C(C=C(NS(=O)(CC)=O)C=C2)/C1=C(C3=CC=CC=C3)/NC(C=C4)=CC=C4CN5CCCCC5

> <standard_relation>
=

> <Publication_ID>
nan

> <predicted_activity_value>
6.522878745280337

> <actual_activity_value>
6.6020599913279625

> <Compound>
14

> <standard_units>
nM

> hash
13289132667909043912

$$$$
13
XXILIB    08252103493D 0   0.00000     0.00000

 37 41  0     1  0            999 V2000
    3.2553    0.8151   -5.2531 S   0  0  1  0  0  6           0  0  0
    3.1688    1.4554   -3.9544 O   0  0  0  0  0  2           0  0  0
    4.4841    0.1766   -5.6862 O   0  0  0  0  0  2           0  0  0
   -3.0463    0.1214   -0.0891 O   0  0  0  0  0  2           0  0  0
    1.9414   -0.2723   -5.4263 N   0  0  0  0  0  3           0  0  0
   -2.7103    0.1360   -2.3982 N   0  0  0  0  0  3           0  0  0
    1.3753   -0.0000    0.0000 N   0  0  0  0  0  3           0  0  0
    5.0317   -5.3150    0.9724 N   0  0  1  0  0  3           0  0  0
    0.7454   -0.0984   -4.6470 C   0  0  0  0  0  4           0  0  0
   -1.6164    0.0748   -3.2553 C   0  0  0  0  0  4           0  0  0
    2.2955   -1.0535    0.0000 C   0  0  0  0  0  4           0  0  0
   -0.4194   -0.0095   -2.5372 C   0  0  0  0  0  4           0  0  0
   -0.6222    0.0000    1.3267 C   0  0  0  0  0  4           0  0  0
    4.2330   -3.1225   -0.0019 C   0  0  0  0  0  4           0  0  0
    0.7716   -0.1270   -3.2392 C   0  0  0  0  0  4           0  0  0
   -0.4795   -0.0277   -5.3359 C   0  0  0  0  0  4           0  0  0
   -1.6796    0.0687   -4.6371 C   0  0  0  0  0  4           0  0  0
    1.9109   -2.4025    0.0000 C   0  0  0  0  0  4           0  0  0
    3.6684   -0.7608    0.0031 C   0  0  0  0  0  4           0  0  0
   -0.9229    1.2094    1.9678 C   0  0  0  0  0  4           0  0  0
   -0.9175   -1.2101    1.9695 C   0  0  0  0  0  4           0  0  0
    2.8669   -3.4241    0.0022 C   0  0  0  0  0  4           0  0  0
    4.6254   -1.7800    0.0044 C   0  0  0  0  0  4           0  0  0
   -1.5173    1.2066    3.2311 C   0  0  0  0  0  4           0  0  0
   -1.5128   -1.2085    3.2321 C   0  0  0  0  0  4           0  0  0
   -1.8134   -0.0012    3.8613 C   0  0  0  0  0  4           0  0  0
    2.8113    2.0230   -6.4853 C   0  0  0  0  0  4           0  0  0
   -2.3174    0.0934   -1.0641 C   0  0  0  0  0  4           0  0  0
    0.0000    0.0000    0.0000 C   0  0  0  0  0  4           0  0  0
    5.2598   -4.2205    0.0231 C   0  0  0  0  0  4           0  0  0
    6.1203   -6.3012    0.8719 C   0  0  0  0  0  4           0  0  0
    4.9104   -4.8181    2.3543 C   0  0  0  0  0  4           0  0  0
   -0.7924    0.0151   -1.1011 C   0  0  0  0  0  4           0  0  0
    5.8838   -7.4929    1.8002 C   0  0  0  0  0  4           0  0  0
    4.6339   -5.9595    3.3354 C   0  0  0  0  0  4           0  0  0
    5.6990   -7.0456    3.2446 C   0  0  0  0  0  4           0  0  0
    3.7405    3.2205   -6.4550 C   0  0  0  0  0  4           0  0  0
  1  2  2  0     0  0
  1  3  2  0     0  0
  1  5  1  0     0  0
  1 27  1  0     0  0
  4 28  2  0     0  0
  5  9  1  0     0  0
  6 10  1  0     0  0
  6 28  1  0     0  0
  7 11  1  0     0  0
  7 29  1  0     0  0
  8 30  1  0     0  0
  8 31  1  0     0  0
  8 32  1  0     0  0
  9 15  2  0     0  0
  9 16  1  0     0  0
 10 12  2  0     0  0
 10 17  1  0     0  0
 11 18  1  0     0  0
 11 19  2  0     0  0
 12 15  1  0     0  0
 12 33  1  0     0  0
 13 20  2  0     0  0
 13 21  1  0     0  0
 13 29  1  0     0  0
 14 22  1  0     0  0
 14 23  2  0     0  0
 14 30  1  0     0  0
 16 17  2  0     0  0
 18 22  2  0     0  0
 19 23  1  0     0  0
 20 24  1  0     0  0
 21 25  2  0     0  0
 24 26  2  0     0  0
 25 26  1  0     0  0
 27 37  1  0     0  0
 28 33  1  0     0  0
 29 33  2  0     0  0
 31 34  1  0     0  0
 32 35  1  0     0  0
 34 36  1  0     0  0
 35 36  1  0     0  0
M  END
> <standard_type>
pIC50

> <# Confs.>
25

> <canonical_smiles>
O=C1NC2=C(C=C(NS(=O)(CC)=O)C=C2)/C1=C(C3=CC=CC=C3)/NC(C=C4)=CC=C4CN5CCCCC5

> <standard_relation>
=

> <Publication_ID>
nan

> <predicted_activity_value>
6.522878745280337

> <actual_activity_value>
6.6020599913279625

> <Compound>
14

> <standard_units>
nM

> hash
13289132667909043912

$$$$
13
XXILIB    08252103493D 0   0.00000     0.00000

 37 41  0     1  0            999 V2000
    3.2553    0.8151   -5.2531 S   0  0  1  0  0  6           0  0  0
    3.1688    1.4554   -3.9544 O   0  0  0  0  0  2           0  0  0
    4.4841    0.1766   -5.6862 O   0  0  0  0  0  2           0  0  0
   -3.0463    0.1214   -0.0891 O   0  0  0  0  0  2           0  0  0
    1.9414   -0.2723   -5.4263 N   0  0  0  0  0  3           0  0  0
   -2.7103    0.1360   -2.3982 N   0  0  0  0  0  3           0  0  0
    1.3753    0.0000   -0.0000 N   0  0  0  0  0  3           0  0  0
    6.3884   -4.0889   -0.9045 N   0  0  1  0  0  3           0  0  0
    0.7454   -0.0984   -4.6470 C   0  0  0  0  0  4           0  0  0
   -1.6164    0.0748   -3.2553 C   0  0  0  0  0  4           0  0  0
    2.2955   -1.0535    0.0000 C   0  0  0  0  0  4           0  0  0
   -0.4194   -0.0095   -2.5372 C   0  0  0  0  0  4           0  0  0
   -0.6222    0.0000    1.3267 C   0  0  0  0  0  4           0  0  0
    4.2330   -3.1225   -0.0019 C   0  0  0  0  0  4           0  0  0
    0.7716   -0.1270   -3.2392 C   0  0  0  0  0  4           0  0  0
   -0.4795   -0.0277   -5.3359 C   0  0  0  0  0  4           0  0  0
   -1.6796    0.0687   -4.6371 C   0  0  0  0  0  4           0  0  0
    1.9109   -2.4025    0.0000 C   0  0  0  0  0  4           0  0  0
    3.6684   -0.7608    0.0031 C   0  0  0  0  0  4           0  0  0
   -0.9229    1.2094    1.9678 C   0  0  0  0  0  4           0  0  0
   -0.9175   -1.2101    1.9695 C   0  0  0  0  0  4           0  0  0
    2.8669   -3.4241    0.0022 C   0  0  0  0  0  4           0  0  0
    4.6254   -1.7800    0.0044 C   0  0  0  0  0  4           0  0  0
   -1.5173    1.2066    3.2311 C   0  0  0  0  0  4           0  0  0
   -1.5128   -1.2085    3.2321 C   0  0  0  0  0  4           0  0  0
   -1.8134   -0.0012    3.8613 C   0  0  0  0  0  4           0  0  0
    2.8113    2.0230   -6.4853 C   0  0  0  0  0  4           0  0  0
   -2.3174    0.0934   -1.0641 C   0  0  0  0  0  4           0  0  0
    0.0000    0.0000    0.0000 C   0  0  0  0  0  4           0  0  0
    5.2598   -4.2205    0.0231 C   0  0  0  0  0  4           0  0  0
    7.2967   -5.2381   -0.7554 C   0  0  0  0  0  4           0  0  0
    5.9321   -3.9682   -2.3003 C   0  0  0  0  0  4           0  0  0
   -0.7924    0.0151   -1.1011 C   0  0  0  0  0  4           0  0  0
    8.5223   -5.1041   -1.6597 C   0  0  0  0  0  4           0  0  0
    7.1114   -3.7923   -3.2596 C   0  0  0  0  0  4           0  0  0
    8.1212   -4.9249   -3.1184 C   0  0  0  0  0  4           0  0  0
    3.7405    3.2205   -6.4550 C   0  0  0  0  0  4           0  0  0
  1  2  2  0     0  0
  1  3  2  0     0  0
  1  5  1  0     0  0
  1 27  1  0     0  0
  4 28  2  0     0  0
  5  9  1  0     0  0
  6 10  1  0     0  0
  6 28  1  0     0  0
  7 11  1  0     0  0
  7 29  1  0     0  0
  8 30  1  0     0  0
  8 31  1  0     0  0
  8 32  1  0     0  0
  9 15  2  0     0  0
  9 16  1  0     0  0
 10 12  2  0     0  0
 10 17  1  0     0  0
 11 18  1  0     0  0
 11 19  2  0     0  0
 12 15  1  0     0  0
 12 33  1  0     0  0
 13 20  2  0     0  0
 13 21  1  0     0  0
 13 29  1  0     0  0
 14 22  1  0     0  0
 14 23  2  0     0  0
 14 30  1  0     0  0
 16 17  2  0     0  0
 18 22  2  0     0  0
 19 23  1  0     0  0
 20 24  1  0     0  0
 21 25  2  0     0  0
 24 26  2  0     0  0
 25 26  1  0     0  0
 27 37  1  0     0  0
 28 33  1  0     0  0
 29 33  2  0     0  0
 31 34  1  0     0  0
 32 35  1  0     0  0
 34 36  1  0     0  0
 35 36  1  0     0  0
M  END
> <standard_type>
pIC50

> <# Confs.>
25

> <canonical_smiles>
O=C1NC2=C(C=C(NS(=O)(CC)=O)C=C2)/C1=C(C3=CC=CC=C3)/NC(C=C4)=CC=C4CN5CCCCC5

> <standard_relation>
=

> <Publication_ID>
nan

> <predicted_activity_value>
6.522878745280337

> <actual_activity_value>
6.6020599913279625

> <Compound>
14

> <standard_units>
nM

> hash
13289132667909043912

$$$$
13
XXILIB    08252103493D 0   0.00000     0.00000

 37 41  0     1  0            999 V2000
    2.8587   -1.7147   -5.2973 S   0  0  1  0  0  6           0  0  0
    3.9020   -1.7011   -6.3050 O   0  0  0  0  0  2           0  0  0
    3.1739   -1.9757   -3.9052 O   0  0  0  0  0  2           0  0  0
   -3.0463    0.1214   -0.0891 O   0  0  0  0  0  2           0  0  0
    1.9414   -0.2723   -5.4263 N   0  0  0  0  0  3           0  0  0
   -2.7103    0.1360   -2.3982 N   0  0  0  0  0  3           0  0  0
    1.3753    0.0000    0.0000 N   0  0  0  0  0  3           0  0  0
    5.0349   -5.3541   -0.8801 N   0  0  1  0  0  3           0  0  0
    0.7454   -0.0984   -4.6470 C   0  0  0  0  0  4           0  0  0
   -1.6164    0.0748   -3.2553 C   0  0  0  0  0  4           0  0  0
    2.2955   -1.0535    0.0000 C   0  0  0  0  0  4           0  0  0
   -0.4194   -0.0095   -2.5372 C   0  0  0  0  0  4           0  0  0
   -0.6222    0.0000    1.3267 C   0  0  0  0  0  4           0  0  0
    4.2330   -3.1225   -0.0019 C   0  0  0  0  0  4           0  0  0
    0.7716   -0.1270   -3.2392 C   0  0  0  0  0  4           0  0  0
   -0.4795   -0.0277   -5.3359 C   0  0  0  0  0  4           0  0  0
   -1.6796    0.0687   -4.6371 C   0  0  0  0  0  4           0  0  0
    1.9109   -2.4025    0.0000 C   0  0  0  0  0  4           0  0  0
    3.6684   -0.7608    0.0031 C   0  0  0  0  0  4           0  0  0
   -0.9229    1.2094    1.9678 C   0  0  0  0  0  4           0  0  0
   -0.9175   -1.2101    1.9695 C   0  0  0  0  0  4           0  0  0
    2.8669   -3.4241    0.0022 C   0  0  0  0  0  4           0  0  0
    4.6254   -1.7800    0.0044 C   0  0  0  0  0  4           0  0  0
   -1.5173    1.2066    3.2311 C   0  0  0  0  0  4           0  0  0
   -1.5128   -1.2085    3.2321 C   0  0  0  0  0  4           0  0  0
   -1.8134   -0.0012    3.8613 C   0  0  0  0  0  4           0  0  0
    1.6290   -2.9002   -5.8038 C   0  0  0  0  0  4           0  0  0
   -2.3174    0.0934   -1.0641 C   0  0  0  0  0  4           0  0  0
    0.0000    0.0000    0.0000 C   0  0  0  0  0  4           0  0  0
    5.2598   -4.2205    0.0231 C   0  0  0  0  0  4           0  0  0
    4.9960   -4.8840   -2.2749 C   0  0  0  0  0  4           0  0  0
    6.0659   -6.3934   -0.7134 C   0  0  0  0  0  4           0  0  0
   -0.7924    0.0151   -1.1011 C   0  0  0  0  0  4           0  0  0
    4.6964   -6.0286   -3.2434 C   0  0  0  0  0  4           0  0  0
    5.8047   -7.5906   -1.6301 C   0  0  0  0  0  4           0  0  0
    5.6992   -7.1651   -3.0896 C   0  0  0  0  0  4           0  0  0
    2.2150   -4.2921   -5.9360 C   0  0  0  0  0  4           0  0  0
  1  2  2  0     0  0
  1  3  2  0     0  0
  1  5  1  0     0  0
  1 27  1  0     0  0
  4 28  2  0     0  0
  5  9  1  0     0  0
  6 10  1  0     0  0
  6 28  1  0     0  0
  7 11  1  0     0  0
  7 29  1  0     0  0
  8 30  1  0     0  0
  8 31  1  0     0  0
  8 32  1  0     0  0
  9 15  2  0     0  0
  9 16  1  0     0  0
 10 12  2  0     0  0
 10 17  1  0     0  0
 11 18  1  0     0  0
 11 19  2  0     0  0
 12 15  1  0     0  0
 12 33  1  0     0  0
 13 20  2  0     0  0
 13 21  1  0     0  0
 13 29  1  0     0  0
 14 22  1  0     0  0
 14 23  2  0     0  0
 14 30  1  0     0  0
 16 17  2  0     0  0
 18 22  2  0     0  0
 19 23  1  0     0  0
 20 24  1  0     0  0
 21 25  2  0     0  0
 24 26  2  0     0  0
 25 26  1  0     0  0
 27 37  1  0     0  0
 28 33  1  0     0  0
 29 33  2  0     0  0
 31 34  1  0     0  0
 32 35  1  0     0  0
 34 36  1  0     0  0
 35 36  1  0     0  0
M  END
> <standard_type>
pIC50

> <# Confs.>
25

> <canonical_smiles>
O=C1NC2=C(C=C(NS(=O)(CC)=O)C=C2)/C1=C(C3=CC=CC=C3)/NC(C=C4)=CC=C4CN5CCCCC5

> <standard_relation>
=

> <Publication_ID>
nan

> <predicted_activity_value>
6.522878745280337

> <actual_activity_value>
6.6020599913279625

> <Compound>
14

> <standard_units>
nM

> hash
13289132667909043912

$$$$
13
XXILIB    08252103493D 0   0.00000     0.00000

 37 41  0     1  0            999 V2000
    2.8587   -1.7147   -5.2973 S   0  0  1  0  0  6           0  0  0
    3.9020   -1.7011   -6.3050 O   0  0  0  0  0  2           0  0  0
    3.1739   -1.9757   -3.9052 O   0  0  0  0  0  2           0  0  0
   -3.0463    0.1214   -0.0891 O   0  0  0  0  0  2           0  0  0
    1.9414   -0.2723   -5.4263 N   0  0  0  0  0  3           0  0  0
   -2.7103    0.1360   -2.3982 N   0  0  0  0  0  3           0  0  0
    1.3753    0.0000   -0.0000 N   0  0  0  0  0  3           0  0  0
    6.3852    4.0498   -0.9481 N   0  0  1  0  0  3           0  0  0
    0.7454   -0.0984   -4.6470 C   0  0  0  0  0  4           0  0  0
   -1.6164    0.0748   -3.2553 C   0  0  0  0  0  4           0  0  0
    2.2955    1.0535   -0.0000 C   0  0  0  0  0  4           0  0  0
   -0.4194   -0.0095   -2.5372 C   0  0  0  0  0  4           0  0  0
   -0.6222    0.0000    1.3267 C   0  0  0  0  0  4           0  0  0
    4.2330    3.1225    0.0019 C   0  0  0  0  0  4           0  0  0
    0.7716   -0.1270   -3.2392 C   0  0  0  0  0  4           0  0  0
   -0.4795   -0.0277   -5.3359 C   0  0  0  0  0  4           0  0  0
   -1.6796    0.0687   -4.6371 C   0  0  0  0  0  4           0  0  0
    1.9109    2.4025    0.0000 C   0  0  0  0  0  4           0  0  0
    3.6684    0.7608   -0.0031 C   0  0  0  0  0  4           0  0  0
   -0.9229    1.2094    1.9678 C   0  0  0  0  0  4           0  0  0
   -0.9175   -1.2101    1.9695 C   0  0  0  0  0  4           0  0  0
    2.8669    3.4241   -0.0022 C   0  0  0  0  0  4           0  0  0
    4.6254    1.7800   -0.0044 C   0  0  0  0  0  4           0  0  0
   -1.5173    1.2066    3.2311 C   0  0  0  0  0  4           0  0  0
   -1.5128   -1.2085    3.2321 C   0  0  0  0  0  4           0  0  0
   -1.8134   -0.0012    3.8613 C   0  0  0  0  0  4           0  0  0
    1.6290   -2.9002   -5.8038 C   0  0  0  0  0  4           0  0  0
   -2.3174    0.0934   -1.0641 C   0  0  0  0  0  4           0  0  0
    0.0000    0.0000    0.0000 C   0  0  0  0  0  4           0  0  0
    5.2598    4.2205   -0.0231 C   0  0  0  0  0  4           0  0  0
    5.8873    3.9460   -2.3298 C   0  0  0  0  0  4           0  0  0
    7.3564    5.1516   -0.8300 C   0  0  0  0  0  4           0  0  0
   -0.7924    0.0151   -1.1011 C   0  0  0  0  0  4           0  0  0
    7.0273    3.7000   -3.3187 C   0  0  0  0  0  4           0  0  0
    8.5474    4.9486   -1.7693 C   0  0  0  0  0  4           0  0  0
    8.0970    4.7796   -3.2153 C   0  0  0  0  0  4           0  0  0
    2.2150   -4.2921   -5.9360 C   0  0  0  0  0  4           0  0  0
  1  2  2  0     0  0
  1  3  2  0     0  0
  1  5  1  0     0  0
  1 27  1  0     0  0
  4 28  2  0     0  0
  5  9  1  0     0  0
  6 10  1  0     0  0
  6 28  1  0     0  0
  7 11  1  0     0  0
  7 29  1  0     0  0
  8 30  1  0     0  0
  8 31  1  0     0  0
  8 32  1  0     0  0
  9 15  2  0     0  0
  9 16  1  0     0  0
 10 12  2  0     0  0
 10 17  1  0     0  0
 11 18  1  0     0  0
 11 19  2  0     0  0
 12 15  1  0     0  0
 12 33  1  0     0  0
 13 20  2  0     0  0
 13 21  1  0     0  0
 13 29  1  0     0  0
 14 22  1  0     0  0
 14 23  2  0     0  0
 14 30  1  0     0  0
 16 17  2  0     0  0
 18 22  2  0     0  0
 19 23  1  0     0  0
 20 24  1  0     0  0
 21 25  2  0     0  0
 24 26  2  0     0  0
 25 26  1  0     0  0
 27 37  1  0     0  0
 28 33  1  0     0  0
 29 33  2  0     0  0
 31 34  1  0     0  0
 32 35  1  0     0  0
 34 36  1  0     0  0
 35 36  1  0     0  0
M  END
> <standard_type>
pIC50

> <# Confs.>
25

> <canonical_smiles>
O=C1NC2=C(C=C(NS(=O)(CC)=O)C=C2)/C1=C(C3=CC=CC=C3)/NC(C=C4)=CC=C4CN5CCCCC5

> <standard_relation>
=

> <Publication_ID>
nan

> <predicted_activity_value>
6.522878745280337

> <actual_activity_value>
6.6020599913279625

> <Compound>
14

> <standard_units>
nM

> hash
13289132667909043912

$$$$
13
XXILIB    08252103493D 0   0.00000     0.00000

 37 41  0     1  0            999 V2000
   -7.2559   -0.0780    0.2134 S   0  0  1  0  0  6           0  0  0
   -7.1883   -1.2651   -0.6174 O   0  0  0  0  0  2           0  0  0
   -7.9052   -0.1151    1.5105 O   0  0  0  0  0  2           0  0  0
    0.7550   -0.4472   -2.8892 O   0  0  0  0  0  2           0  0  0
   -5.6819    0.5833    0.3686 N   0  0  0  0  0  3           0  0  0
   -1.5426   -0.2637   -3.2550 N   0  0  0  0  0  3           0  0  0
    1.3753    0.0000   -0.0000 N   0  0  0  0  0  3           0  0  0
    6.6194   -2.1518    3.2460 N   0  0  1  0  0  3           0  0  0
   -4.6711    0.2940   -0.6126 C   0  0  0  0  0  4           0  0  0
   -2.6742   -0.0870   -2.4646 C   0  0  0  0  0  4           0  0  0
    2.2955   -0.5267    0.9123 C   0  0  0  0  0  4           0  0  0
   -2.3263    0.0539   -1.1190 C   0  0  0  0  0  4           0  0  0
   -0.5424   -0.0000    1.3613 C   0  0  0  0  0  4           0  0  0
    4.2238   -1.5242    2.7348 C   0  0  0  0  0  4           0  0  0
   -3.3303    0.2732   -0.1875 C   0  0  0  0  0  4           0  0  0
   -4.9864    0.1630   -1.9787 C   0  0  0  0  0  4           0  0  0
   -3.9788   -0.0385   -2.9208 C   0  0  0  0  0  4           0  0  0
    2.0296   -1.6591    1.6965 C   0  0  0  0  0  4           0  0  0
    3.5434    0.0984    1.0614 C   0  0  0  0  0  4           0  0  0
   -0.2428    1.0473    2.2430 C   0  0  0  0  0  4           0  0  0
   -1.3618   -1.0508    1.7962 C   0  0  0  0  0  4           0  0  0
    2.9800   -2.1500    2.5984 C   0  0  0  0  0  4           0  0  0
    4.4949   -0.3908    1.9614 C   0  0  0  0  0  4           0  0  0
   -0.7622    1.0458    3.5388 C   0  0  0  0  0  4           0  0  0
   -1.8800   -1.0480    3.0924 C   0  0  0  0  0  4           0  0  0
   -1.5813    0.0000    3.9620 C   0  0  0  0  0  4           0  0  0
   -8.0313    1.2106   -0.7418 C   0  0  0  0  0  4           0  0  0
   -0.3798   -0.2616   -2.4893 C   0  0  0  0  0  4           0  0  0
    0.0000    0.0000   -0.0000 C   0  0  0  0  0  4           0  0  0
    5.2361   -2.0388    3.7202 C   0  0  0  0  0  4           0  0  0
    7.4789   -2.6672    4.3248 C   0  0  0  0  0  4           0  0  0
    6.7155   -3.0116    2.0532 C   0  0  0  0  0  4           0  0  0
   -0.8472   -0.0364   -1.0574 C   0  0  0  0  0  4           0  0  0
    8.9430   -2.7363    3.8895 C   0  0  0  0  0  4           0  0  0
    8.1547   -3.0948    1.5399 C   0  0  0  0  0  4           0  0  0
    9.1098   -3.5725    2.6271 C   0  0  0  0  0  4           0  0  0
   -9.4316    0.8215   -1.1733 C   0  0  0  0  0  4           0  0  0
  1  2  2  0     0  0
  1  3  2  0     0  0
  1  5  1  0     0  0
  1 27  1  0     0  0
  4 28  2  0     0  0
  5  9  1  0     0  0
  6 10  1  0     0  0
  6 28  1  0     0  0
  7 11  1  0     0  0
  7 29  1  0     0  0
  8 30  1  0     0  0
  8 31  1  0     0  0
  8 32  1  0     0  0
  9 15  2  0     0  0
  9 16  1  0     0  0
 10 12  2  0     0  0
 10 17  1  0     0  0
 11 18  1  0     0  0
 11 19  2  0     0  0
 12 15  1  0     0  0
 12 33  1  0     0  0
 13 20  2  0     0  0
 13 21  1  0     0  0
 13 29  1  0     0  0
 14 22  1  0     0  0
 14 23  2  0     0  0
 14 30  1  0     0  0
 16 17  2  0     0  0
 18 22  2  0     0  0
 19 23  1  0     0  0
 20 24  1  0     0  0
 21 25  2  0     0  0
 24 26  2  0     0  0
 25 26  1  0     0  0
 27 37  1  0     0  0
 28 33  1  0     0  0
 29 33  2  0     0  0
 31 34  1  0     0  0
 32 35  1  0     0  0
 34 36  1  0     0  0
 35 36  1  0     0  0
M  END
> <standard_type>
pIC50

> <# Confs.>
25

> <canonical_smiles>
O=C1NC2=C(C=C(NS(=O)(CC)=O)C=C2)/C1=C(C3=CC=CC=C3)/NC(C=C4)=CC=C4CN5CCCCC5

> <standard_relation>
=

> <Publication_ID>
nan

> <predicted_activity_value>
6.522878745280337

> <actual_activity_value>
6.6020599913279625

> <Compound>
14

> <standard_units>
nM

> hash
13289132667909043912

$$$$
13
XXILIB    08252103493D 0   0.00000     0.00000

 37 41  0     1  0            999 V2000
    2.4338   -1.8377   -5.9219 S   0  0  1  0  0  6           0  0  0
    1.2796   -2.7163   -5.9227 O   0  0  0  0  0  2           0  0  0
    3.2928   -1.7386   -7.0870 O   0  0  0  0  0  2           0  0  0
   -3.0463    0.1214   -0.0891 O   0  0  0  0  0  2           0  0  0
    1.9414   -0.2723   -5.4263 N   0  0  0  0  0  3           0  0  0
   -2.7103    0.1360   -2.3982 N   0  0  0  0  0  3           0  0  0
    1.3753    0.0000   -0.0000 N   0  0  0  0  0  3           0  0  0
    5.7123   -4.7296   -1.2759 N   0  0  1  0  0  3           0  0  0
    0.7454   -0.0984   -4.6470 C   0  0  0  0  0  4           0  0  0
   -1.6164    0.0748   -3.2553 C   0  0  0  0  0  4           0  0  0
    2.2955   -1.0535    0.0000 C   0  0  0  0  0  4           0  0  0
   -0.4194   -0.0095   -2.5372 C   0  0  0  0  0  4           0  0  0
   -0.6222    0.0000    1.3267 C   0  0  0  0  0  4           0  0  0
    4.2330   -3.1225   -0.0019 C   0  0  0  0  0  4           0  0  0
    0.7716   -0.1270   -3.2392 C   0  0  0  0  0  4           0  0  0
   -0.4795   -0.0277   -5.3359 C   0  0  0  0  0  4           0  0  0
   -1.6796    0.0687   -4.6371 C   0  0  0  0  0  4           0  0  0
    1.9109   -2.4025    0.0000 C   0  0  0  0  0  4           0  0  0
    3.6684   -0.7608    0.0031 C   0  0  0  0  0  4           0  0  0
   -0.9229    1.2094    1.9678 C   0  0  0  0  0  4           0  0  0
   -0.9175   -1.2101    1.9695 C   0  0  0  0  0  4           0  0  0
    2.8669   -3.4241    0.0022 C   0  0  0  0  0  4           0  0  0
    4.6254   -1.7800    0.0044 C   0  0  0  0  0  4           0  0  0
   -1.5173    1.2066    3.2311 C   0  0  0  0  0  4           0  0  0
   -1.5128   -1.2085    3.2321 C   0  0  0  0  0  4           0  0  0
   -1.8134   -0.0012    3.8613 C   0  0  0  0  0  4           0  0  0
    3.4567   -2.2854   -4.5336 C   0  0  0  0  0  4           0  0  0
   -2.3174    0.0934   -1.0641 C   0  0  0  0  0  4           0  0  0
    0.0000   -0.0000    0.0000 C   0  0  0  0  0  4           0  0  0
    5.2598   -4.2205    0.0231 C   0  0  0  0  0  4           0  0  0
    6.7104   -5.7936   -1.0775 C   0  0  0  0  0  4           0  0  0
    4.5857   -5.2225   -2.0877 C   0  0  0  0  0  4           0  0  0
   -0.7924    0.0151   -1.1011 C   0  0  0  0  0  4           0  0  0
    7.2566   -6.3048   -2.4111 C   0  0  0  0  0  4           0  0  0
    5.0585   -5.7166   -3.4567 C   0  0  0  0  0  4           0  0  0
    6.1360   -6.7860   -3.3240 C   0  0  0  0  0  4           0  0  0
    4.6960   -1.4164   -4.4486 C   0  0  0  0  0  4           0  0  0
  1  2  2  0     0  0
  1  3  2  0     0  0
  1  5  1  0     0  0
  1 27  1  0     0  0
  4 28  2  0     0  0
  5  9  1  0     0  0
  6 10  1  0     0  0
  6 28  1  0     0  0
  7 11  1  0     0  0
  7 29  1  0     0  0
  8 30  1  0     0  0
  8 31  1  0     0  0
  8 32  1  0     0  0
  9 15  2  0     0  0
  9 16  1  0     0  0
 10 12  2  0     0  0
 10 17  1  0     0  0
 11 18  1  0     0  0
 11 19  2  0     0  0
 12 15  1  0     0  0
 12 33  1  0     0  0
 13 20  2  0     0  0
 13 21  1  0     0  0
 13 29  1  0     0  0
 14 22  1  0     0  0
 14 23  2  0     0  0
 14 30  1  0     0  0
 16 17  2  0     0  0
 18 22  2  0     0  0
 19 23  1  0     0  0
 20 24  1  0     0  0
 21 25  2  0     0  0
 24 26  2  0     0  0
 25 26  1  0     0  0
 27 37  1  0     0  0
 28 33  1  0     0  0
 29 33  2  0     0  0
 31 34  1  0     0  0
 32 35  1  0     0  0
 34 36  1  0     0  0
 35 36  1  0     0  0
M  END
> <standard_type>
pIC50

> <# Confs.>
25

> <canonical_smiles>
O=C1NC2=C(C=C(NS(=O)(CC)=O)C=C2)/C1=C(C3=CC=CC=C3)/NC(C=C4)=CC=C4CN5CCCCC5

> <standard_relation>
=

> <Publication_ID>
nan

> <predicted_activity_value>
6.522878745280337

> <actual_activity_value>
6.6020599913279625

> <Compound>
14

> <standard_units>
nM

> hash
13289132667909043912

$$$$
13
XXILIB    08252103493D 0   0.00000     0.00000

 37 41  0     1  0            999 V2000
    2.8587   -1.7147   -5.2973 S   0  0  1  0  0  6           0  0  0
    3.9020   -1.7011   -6.3050 O   0  0  0  0  0  2           0  0  0
    3.1739   -1.9757   -3.9052 O   0  0  0  0  0  2           0  0  0
   -3.0463    0.1214   -0.0891 O   0  0  0  0  0  2           0  0  0
    1.9414   -0.2723   -5.4263 N   0  0  0  0  0  3           0  0  0
   -2.7103    0.1360   -2.3982 N   0  0  0  0  0  3           0  0  0
    1.3753    0.0000   -0.0000 N   0  0  0  0  0  3           0  0  0
    6.3884   -4.0889   -0.9045 N   0  0  1  0  0  3           0  0  0
    0.7454   -0.0984   -4.6470 C   0  0  0  0  0  4           0  0  0
   -1.6164    0.0748   -3.2553 C   0  0  0  0  0  4           0  0  0
    2.2955   -1.0535    0.0000 C   0  0  0  0  0  4           0  0  0
   -0.4194   -0.0095   -2.5372 C   0  0  0  0  0  4           0  0  0
   -0.6222    0.0000    1.3267 C   0  0  0  0  0  4           0  0  0
    4.2330   -3.1225   -0.0019 C   0  0  0  0  0  4           0  0  0
    0.7716   -0.1270   -3.2392 C   0  0  0  0  0  4           0  0  0
   -0.4795   -0.0277   -5.3359 C   0  0  0  0  0  4           0  0  0
   -1.6796    0.0687   -4.6371 C   0  0  0  0  0  4           0  0  0
    1.9109   -2.4025    0.0000 C   0  0  0  0  0  4           0  0  0
    3.6684   -0.7608    0.0031 C   0  0  0  0  0  4           0  0  0
   -0.9229    1.2094    1.9678 C   0  0  0  0  0  4           0  0  0
   -0.9175   -1.2101    1.9695 C   0  0  0  0  0  4           0  0  0
    2.8669   -3.4241    0.0022 C   0  0  0  0  0  4           0  0  0
    4.6254   -1.7800    0.0044 C   0  0  0  0  0  4           0  0  0
   -1.5173    1.2066    3.2311 C   0  0  0  0  0  4           0  0  0
   -1.5128   -1.2085    3.2321 C   0  0  0  0  0  4           0  0  0
   -1.8134   -0.0012    3.8613 C   0  0  0  0  0  4           0  0  0
    1.6290   -2.9002   -5.8038 C   0  0  0  0  0  4           0  0  0
   -2.3174    0.0934   -1.0641 C   0  0  0  0  0  4           0  0  0
    0.0000    0.0000    0.0000 C   0  0  0  0  0  4           0  0  0
    5.2598   -4.2205    0.0231 C   0  0  0  0  0  4           0  0  0
    7.2967   -5.2381   -0.7554 C   0  0  0  0  0  4           0  0  0
    5.9321   -3.9682   -2.3003 C   0  0  0  0  0  4           0  0  0
   -0.7924    0.0151   -1.1011 C   0  0  0  0  0  4           0  0  0
    8.5223   -5.1041   -1.6597 C   0  0  0  0  0  4           0  0  0
    7.1114   -3.7923   -3.2596 C   0  0  0  0  0  4           0  0  0
    8.1212   -4.9249   -3.1184 C   0  0  0  0  0  4           0  0  0
    2.2150   -4.2921   -5.9360 C   0  0  0  0  0  4           0  0  0
  1  2  2  0     0  0
  1  3  2  0     0  0
  1  5  1  0     0  0
  1 27  1  0     0  0
  4 28  2  0     0  0
  5  9  1  0     0  0
  6 10  1  0     0  0
  6 28  1  0     0  0
  7 11  1  0     0  0
  7 29  1  0     0  0
  8 30  1  0     0  0
  8 31  1  0     0  0
  8 32  1  0     0  0
  9 15  2  0     0  0
  9 16  1  0     0  0
 10 12  2  0     0  0
 10 17  1  0     0  0
 11 18  1  0     0  0
 11 19  2  0     0  0
 12 15  1  0     0  0
 12 33  1  0     0  0
 13 20  2  0     0  0
 13 21  1  0     0  0
 13 29  1  0     0  0
 14 22  1  0     0  0
 14 23  2  0     0  0
 14 30  1  0     0  0
 16 17  2  0     0  0
 18 22  2  0     0  0
 19 23  1  0     0  0
 20 24  1  0     0  0
 21 25  2  0     0  0
 24 26  2  0     0  0
 25 26  1  0     0  0
 27 37  1  0     0  0
 28 33  1  0     0  0
 29 33  2  0     0  0
 31 34  1  0     0  0
 32 35  1  0     0  0
 34 36  1  0     0  0
 35 36  1  0     0  0
M  END
> <standard_type>
pIC50

> <# Confs.>
25

> <canonical_smiles>
O=C1NC2=C(C=C(NS(=O)(CC)=O)C=C2)/C1=C(C3=CC=CC=C3)/NC(C=C4)=CC=C4CN5CCCCC5

> <standard_relation>
=

> <Publication_ID>
nan

> <predicted_activity_value>
6.522878745280337

> <actual_activity_value>
6.6020599913279625

> <Compound>
14

> <standard_units>
nM

> hash
13289132667909043912

$$$$
13
XXILIB    08252103493D 0   0.00000     0.00000

 37 41  0     1  0            999 V2000
   -7.2559   -0.0780    0.2134 S   0  0  1  0  0  6           0  0  0
   -7.1883   -1.2651   -0.6174 O   0  0  0  0  0  2           0  0  0
   -7.9052   -0.1151    1.5105 O   0  0  0  0  0  2           0  0  0
    0.7550   -0.4472   -2.8892 O   0  0  0  0  0  2           0  0  0
   -5.6819    0.5833    0.3686 N   0  0  0  0  0  3           0  0  0
   -1.5426   -0.2637   -3.2550 N   0  0  0  0  0  3           0  0  0
    1.3753    0.0000    0.0000 N   0  0  0  0  0  3           0  0  0
    5.9163   -1.0385    4.5497 N   0  0  1  0  0  3           0  0  0
   -4.6711    0.2940   -0.6126 C   0  0  0  0  0  4           0  0  0
   -2.6742   -0.0870   -2.4646 C   0  0  0  0  0  4           0  0  0
    2.2955   -0.5267    0.9123 C   0  0  0  0  0  4           0  0  0
   -2.3263    0.0539   -1.1190 C   0  0  0  0  0  4           0  0  0
   -0.5424   -0.0000    1.3613 C   0  0  0  0  0  4           0  0  0
    4.2238   -1.5242    2.7348 C   0  0  0  0  0  4           0  0  0
   -3.3303    0.2732   -0.1875 C   0  0  0  0  0  4           0  0  0
   -4.9864    0.1630   -1.9787 C   0  0  0  0  0  4           0  0  0
   -3.9788   -0.0385   -2.9208 C   0  0  0  0  0  4           0  0  0
    2.0296   -1.6591    1.6965 C   0  0  0  0  0  4           0  0  0
    3.5434    0.0984    1.0614 C   0  0  0  0  0  4           0  0  0
   -0.2428    1.0473    2.2430 C   0  0  0  0  0  4           0  0  0
   -1.3618   -1.0508    1.7962 C   0  0  0  0  0  4           0  0  0
    2.9800   -2.1500    2.5984 C   0  0  0  0  0  4           0  0  0
    4.4949   -0.3908    1.9614 C   0  0  0  0  0  4           0  0  0
   -0.7622    1.0458    3.5388 C   0  0  0  0  0  4           0  0  0
   -1.8800   -1.0480    3.0924 C   0  0  0  0  0  4           0  0  0
   -1.5813    0.0000    3.9620 C   0  0  0  0  0  4           0  0  0
   -8.0313    1.2106   -0.7418 C   0  0  0  0  0  4           0  0  0
   -0.3798   -0.2616   -2.4893 C   0  0  0  0  0  4           0  0  0
    0.0000    0.0000   -0.0000 C   0  0  0  0  0  4           0  0  0
    5.2361   -2.0388    3.7202 C   0  0  0  0  0  4           0  0  0
    4.9291   -0.2968    5.3516 C   0  0  0  0  0  4           0  0  0
    6.9313   -1.6560    5.4213 C   0  0  0  0  0  4           0  0  0
   -0.8472   -0.0364   -1.0574 C   0  0  0  0  0  4           0  0  0
    5.5936    0.8021    6.1815 C   0  0  0  0  0  4           0  0  0
    7.6646   -0.6037    6.2561 C   0  0  0  0  0  4           0  0  0
    6.6927    0.2388    7.0733 C   0  0  0  0  0  4           0  0  0
   -9.4316    0.8215   -1.1733 C   0  0  0  0  0  4           0  0  0
  1  2  2  0     0  0
  1  3  2  0     0  0
  1  5  1  0     0  0
  1 27  1  0     0  0
  4 28  2  0     0  0
  5  9  1  0     0  0
  6 10  1  0     0  0
  6 28  1  0     0  0
  7 11  1  0     0  0
  7 29  1  0     0  0
  8 30  1  0     0  0
  8 31  1  0     0  0
  8 32  1  0     0  0
  9 15  2  0     0  0
  9 16  1  0     0  0
 10 12  2  0     0  0
 10 17  1  0     0  0
 11 18  1  0     0  0
 11 19  2  0     0  0
 12 15  1  0     0  0
 12 33  1  0     0  0
 13 20  2  0     0  0
 13 21  1  0     0  0
 13 29  1  0     0  0
 14 22  1  0     0  0
 14 23  2  0     0  0
 14 30  1  0     0  0
 16 17  2  0     0  0
 18 22  2  0     0  0
 19 23  1  0     0  0
 20 24  1  0     0  0
 21 25  2  0     0  0
 24 26  2  0     0  0
 25 26  1  0     0  0
 27 37  1  0     0  0
 28 33  1  0     0  0
 29 33  2  0     0  0
 31 34  1  0     0  0
 32 35  1  0     0  0
 34 36  1  0     0  0
 35 36  1  0     0  0
M  END
> <standard_type>
pIC50

> <# Confs.>
25

> <canonical_smiles>
O=C1NC2=C(C=C(NS(=O)(CC)=O)C=C2)/C1=C(C3=CC=CC=C3)/NC(C=C4)=CC=C4CN5CCCCC5

> <standard_relation>
=

> <Publication_ID>
nan

> <predicted_activity_value>
6.522878745280337

> <actual_activity_value>
6.6020599913279625

> <Compound>
14

> <standard_units>
nM

> hash
13289132667909043912

$$$$
13
XXILIB    08252103493D 0   0.00000     0.00000

 37 41  0     1  0            999 V2000
    2.8700   -1.2993   -5.7602 S   0  0  1  0  0  6           0  0  0
    1.9589   -2.4275   -5.7933 O   0  0  0  0  0  2           0  0  0
    3.7554   -1.0265   -6.8768 O   0  0  0  0  0  2           0  0  0
   -3.0490   -0.0322   -0.0846 O   0  0  0  0  0  2           0  0  0
    1.9901    0.1151   -5.3552 N   0  0  0  0  0  3           0  0  0
   -2.7179   -0.0340   -2.3940 N   0  0  0  0  0  3           0  0  0
    1.3753    0.0000   -0.0000 N   0  0  0  0  0  3           0  0  0
    6.3884   -4.0889   -0.9045 N   0  0  1  0  0  3           0  0  0
    0.7387    0.0176   -4.6535 C   0  0  0  0  0  4           0  0  0
   -1.6242   -0.0162   -3.2535 C   0  0  0  0  0  4           0  0  0
    2.2955   -1.0535    0.0000 C   0  0  0  0  0  4           0  0  0
   -0.4228    0.0042   -2.5379 C   0  0  0  0  0  4           0  0  0
   -0.6211    0.0000    1.3272 C   0  0  0  0  0  4           0  0  0
    4.2330   -3.1225   -0.0019 C   0  0  0  0  0  4           0  0  0
    0.7694    0.0378   -3.2460 C   0  0  0  0  0  4           0  0  0
   -0.4893    0.0244   -5.3406 C   0  0  0  0  0  4           0  0  0
   -1.6903   -0.0039   -4.6358 C   0  0  0  0  0  4           0  0  0
    1.9109   -2.4025    0.0000 C   0  0  0  0  0  4           0  0  0
    3.6684   -0.7608    0.0031 C   0  0  0  0  0  4           0  0  0
   -0.9213    1.2094    1.9686 C   0  0  0  0  0  4           0  0  0
   -0.9159   -1.2101    1.9702 C   0  0  0  0  0  4           0  0  0
    2.8669   -3.4241    0.0022 C   0  0  0  0  0  4           0  0  0
    4.6254   -1.7800    0.0044 C   0  0  0  0  0  4           0  0  0
   -1.5147    1.2066    3.2323 C   0  0  0  0  0  4           0  0  0
   -1.5103   -1.2085    3.2333 C   0  0  0  0  0  4           0  0  0
   -1.8103   -0.0012    3.8628 C   0  0  0  0  0  4           0  0  0
    3.8770   -1.4566   -4.2988 C   0  0  0  0  0  4           0  0  0
   -2.3207   -0.0243   -1.0608 C   0  0  0  0  0  4           0  0  0
    0.0000    0.0000    0.0000 C   0  0  0  0  0  4           0  0  0
    5.2598   -4.2205    0.0231 C   0  0  0  0  0  4           0  0  0
    7.2967   -5.2381   -0.7554 C   0  0  0  0  0  4           0  0  0
    5.9321   -3.9682   -2.3003 C   0  0  0  0  0  4           0  0  0
   -0.7935   -0.0035   -1.1009 C   0  0  0  0  0  4           0  0  0
    8.5223   -5.1041   -1.6597 C   0  0  0  0  0  4           0  0  0
    7.1114   -3.7923   -3.2596 C   0  0  0  0  0  4           0  0  0
    8.1212   -4.9249   -3.1184 C   0  0  0  0  0  4           0  0  0
    4.8673   -0.3153   -4.1765 C   0  0  0  0  0  4           0  0  0
  1  2  2  0     0  0
  1  3  2  0     0  0
  1  5  1  0     0  0
  1 27  1  0     0  0
  4 28  2  0     0  0
  5  9  1  0     0  0
  6 10  1  0     0  0
  6 28  1  0     0  0
  7 11  1  0     0  0
  7 29  1  0     0  0
  8 30  1  0     0  0
  8 31  1  0     0  0
  8 32  1  0     0  0
  9 15  2  0     0  0
  9 16  1  0     0  0
 10 12  2  0     0  0
 10 17  1  0     0  0
 11 18  1  0     0  0
 11 19  2  0     0  0
 12 15  1  0     0  0
 12 33  1  0     0  0
 13 20  2  0     0  0
 13 21  1  0     0  0
 13 29  1  0     0  0
 14 22  1  0     0  0
 14 23  2  0     0  0
 14 30  1  0     0  0
 16 17  2  0     0  0
 18 22  2  0     0  0
 19 23  1  0     0  0
 20 24  1  0     0  0
 21 25  2  0     0  0
 24 26  2  0     0  0
 25 26  1  0     0  0
 27 37  1  0     0  0
 28 33  1  0     0  0
 29 33  2  0     0  0
 31 34  1  0     0  0
 32 35  1  0     0  0
 34 36  1  0     0  0
 35 36  1  0     0  0
M  END
> <standard_type>
pIC50

> <# Confs.>
25

> <canonical_smiles>
O=C1NC2=C(C=C(NS(=O)(CC)=O)C=C2)/C1=C(C3=CC=CC=C3)/NC(C=C4)=CC=C4CN5CCCCC5

> <standard_relation>
=

> <Publication_ID>
nan

> <predicted_activity_value>
6.522878745280337

> <actual_activity_value>
6.6020599913279625

> <Compound>
14

> <standard_units>
nM

> hash
13289132667909043912

$$$$
13
XXILIB    08252103493D 0   0.00000     0.00000

 37 41  0     1  0            999 V2000
    3.2553    0.8151   -5.2531 S   0  0  1  0  0  6           0  0  0
    3.1688    1.4554   -3.9544 O   0  0  0  0  0  2           0  0  0
    4.4841    0.1766   -5.6862 O   0  0  0  0  0  2           0  0  0
   -3.0463    0.1214   -0.0891 O   0  0  0  0  0  2           0  0  0
    1.9414   -0.2723   -5.4263 N   0  0  0  0  0  3           0  0  0
   -2.7103    0.1360   -2.3982 N   0  0  0  0  0  3           0  0  0
    1.3753   -0.0000    0.0000 N   0  0  0  0  0  3           0  0  0
    6.3852   -4.0498    0.9481 N   0  0  1  0  0  3           0  0  0
    0.7454   -0.0984   -4.6470 C   0  0  0  0  0  4           0  0  0
   -1.6164    0.0748   -3.2553 C   0  0  0  0  0  4           0  0  0
    2.2955   -1.0535    0.0000 C   0  0  0  0  0  4           0  0  0
   -0.4194   -0.0095   -2.5372 C   0  0  0  0  0  4           0  0  0
   -0.6222    0.0000    1.3267 C   0  0  0  0  0  4           0  0  0
    4.2330   -3.1225   -0.0019 C   0  0  0  0  0  4           0  0  0
    0.7716   -0.1270   -3.2392 C   0  0  0  0  0  4           0  0  0
   -0.4795   -0.0277   -5.3359 C   0  0  0  0  0  4           0  0  0
   -1.6796    0.0687   -4.6371 C   0  0  0  0  0  4           0  0  0
    1.9109   -2.4025    0.0000 C   0  0  0  0  0  4           0  0  0
    3.6684   -0.7608    0.0031 C   0  0  0  0  0  4           0  0  0
   -0.9229    1.2094    1.9678 C   0  0  0  0  0  4           0  0  0
   -0.9175   -1.2101    1.9695 C   0  0  0  0  0  4           0  0  0
    2.8669   -3.4241    0.0022 C   0  0  0  0  0  4           0  0  0
    4.6254   -1.7800    0.0044 C   0  0  0  0  0  4           0  0  0
   -1.5173    1.2066    3.2311 C   0  0  0  0  0  4           0  0  0
   -1.5128   -1.2085    3.2321 C   0  0  0  0  0  4           0  0  0
   -1.8134   -0.0012    3.8613 C   0  0  0  0  0  4           0  0  0
    2.8113    2.0230   -6.4853 C   0  0  0  0  0  4           0  0  0
   -2.3174    0.0934   -1.0641 C   0  0  0  0  0  4           0  0  0
    0.0000    0.0000    0.0000 C   0  0  0  0  0  4           0  0  0
    5.2598   -4.2205    0.0231 C   0  0  0  0  0  4           0  0  0
    5.8873   -3.9460    2.3298 C   0  0  0  0  0  4           0  0  0
    7.3564   -5.1516    0.8300 C   0  0  0  0  0  4           0  0  0
   -0.7924    0.0151   -1.1011 C   0  0  0  0  0  4           0  0  0
    7.0273   -3.7000    3.3187 C   0  0  0  0  0  4           0  0  0
    8.5474   -4.9486    1.7693 C   0  0  0  0  0  4           0  0  0
    8.0970   -4.7796    3.2153 C   0  0  0  0  0  4           0  0  0
    3.7405    3.2205   -6.4550 C   0  0  0  0  0  4           0  0  0
  1  2  2  0     0  0
  1  3  2  0     0  0
  1  5  1  0     0  0
  1 27  1  0     0  0
  4 28  2  0     0  0
  5  9  1  0     0  0
  6 10  1  0     0  0
  6 28  1  0     0  0
  7 11  1  0     0  0
  7 29  1  0     0  0
  8 30  1  0     0  0
  8 31  1  0     0  0
  8 32  1  0     0  0
  9 15  2  0     0  0
  9 16  1  0     0  0
 10 12  2  0     0  0
 10 17  1  0     0  0
 11 18  1  0     0  0
 11 19  2  0     0  0
 12 15  1  0     0  0
 12 33  1  0     0  0
 13 20  2  0     0  0
 13 21  1  0     0  0
 13 29  1  0     0  0
 14 22  1  0     0  0
 14 23  2  0     0  0
 14 30  1  0     0  0
 16 17  2  0     0  0
 18 22  2  0     0  0
 19 23  1  0     0  0
 20 24  1  0     0  0
 21 25  2  0     0  0
 24 26  2  0     0  0
 25 26  1  0     0  0
 27 37  1  0     0  0
 28 33  1  0     0  0
 29 33  2  0     0  0
 31 34  1  0     0  0
 32 35  1  0     0  0
 34 36  1  0     0  0
 35 36  1  0     0  0
M  END
> <standard_type>
pIC50

> <# Confs.>
25

> <canonical_smiles>
O=C1NC2=C(C=C(NS(=O)(CC)=O)C=C2)/C1=C(C3=CC=CC=C3)/NC(C=C4)=CC=C4CN5CCCCC5

> <standard_relation>
=

> <Publication_ID>
nan

> <predicted_activity_value>
6.522878745280337

> <actual_activity_value>
6.6020599913279625

> <Compound>
14

> <standard_units>
nM

> hash
13289132667909043912

$$$$
