_Terfenadine
XXILIB    06242209073D 0   0.00000     0.00000

 76 79  0     1  0            999 V2000
    0.9749    0.0955   -7.4026 O   0  0  0  0  0  2           0  0  0
   -0.5404   -1.1162    1.0183 O   0  0  0  0  0  2           0  0  0
   -1.3770   -0.6568   -3.5537 N   0  0  0  0  0  3           0  0  0
   -0.8838    1.1376   -8.4519 C   0  0  0  0  0  4           0  0  0
   -0.3735   -1.3121   -8.7792 C   0  0  0  0  0  4           0  0  0
    1.6225   -0.4069    0.1907 C   0  0  0  0  0  4           0  0  0
    4.3636    0.0728    0.7716 C   0  0  0  0  0  4           0  0  0
   -2.1996    1.2089   -8.9479 C   0  0  0  0  0  4           0  0  0
   -0.0590    2.2619   -8.6241 C   0  0  0  0  0  4           0  0  0
   -1.4860   -2.1711   -8.8619 C   0  0  0  0  0  4           0  0  0
    0.7411   -1.6079   -9.5817 C   0  0  0  0  0  4           0  0  0
    2.6313   -1.1127   -0.4734 C   0  0  0  0  0  4           0  0  0
    1.9950    0.5395    1.1522 C   0  0  0  0  0  4           0  0  0
    3.9810   -0.8796   -0.1849 C   0  0  0  0  0  4           0  0  0
    3.3436    0.7716    1.4405 C   0  0  0  0  0  4           0  0  0
   -2.6766    2.3637   -9.5725 C   0  0  0  0  0  4           0  0  0
   -0.5381    3.4181   -9.2475 C   0  0  0  0  0  4           0  0  0
   -1.4912   -3.2685   -9.7261 C   0  0  0  0  0  4           0  0  0
    0.7342   -2.7054  -10.4481 C   0  0  0  0  0  4           0  0  0
   -1.8459    3.4696   -9.7210 C   0  0  0  0  0  4           0  0  0
   -0.3810   -3.5350  -10.5208 C   0  0  0  0  0  4           0  0  0
   -0.3941   -0.1388   -7.8045 C   0  0  0  0  0  4           0  0  0
    0.1743   -0.6664   -0.1336 C   0  0  0  0  0  4           0  0  0
   -1.8694    0.5546   -4.2255 C   0  0  0  0  0  4           0  0  0
   -1.5227   -1.8284   -4.4312 C   0  0  0  0  0  4           0  0  0
   -2.0784   -0.8475   -2.2822 C   0  0  0  0  0  4           0  0  0
    5.8134    0.3392    1.1106 C   0  0  0  0  0  4           0  0  0
   -1.1732   -0.3774   -6.4868 C   0  0  0  0  0  4           0  0  0
   -0.5328    0.5372   -0.7677 C   0  0  0  0  0  4           0  0  0
   -1.1054    0.8259   -5.5244 C   0  0  0  0  0  4           0  0  0
   -0.7386   -1.6488   -5.7339 C   0  0  0  0  0  4           0  0  0
   -1.9633    0.2550   -1.2288 C   0  0  0  0  0  4           0  0  0
    6.4465   -0.9634    1.6375 C   0  0  0  0  0  4           0  0  0
    5.9549    1.4320    2.1933 C   0  0  0  0  0  4           0  0  0
    6.6048    0.8104   -0.1296 C   0  0  0  0  0  4           0  0  0
    1.3218   -0.6864   -6.9893 H   0  0  0  0  0  1           0  0  0
   -1.4485   -1.2720    0.7866 H   0  0  0  0  0  1           0  0  0
   -2.8462    0.3627   -8.8445 H   0  0  0  0  0  1           0  0  0
    0.9513    2.2329   -8.2729 H   0  0  0  0  0  1           0  0  0
   -2.3436   -1.9797   -8.2513 H   0  0  0  0  0  1           0  0  0
    1.6086   -0.9837   -9.5292 H   0  0  0  0  0  1           0  0  0
    2.3676   -1.8407   -1.2119 H   0  0  0  0  0  1           0  0  0
    1.2399    1.0914    1.6720 H   0  0  0  0  0  1           0  0  0
    4.7335   -1.4371   -0.7024 H   0  0  0  0  0  1           0  0  0
    3.6041    1.4951    2.1847 H   0  0  0  0  0  1           0  0  0
   -3.6820    2.3977   -9.9370 H   0  0  0  0  0  1           0  0  0
    0.1033    4.2670   -9.3610 H   0  0  0  0  0  1           0  0  0
   -2.3499   -3.9048   -9.7768 H   0  0  0  0  0  1           0  0  0
    1.5898   -2.9084  -11.0576 H   0  0  0  0  0  1           0  0  0
   -2.2106    4.3557  -10.1971 H   0  0  0  0  0  1           0  0  0
   -0.3843   -4.3739  -11.1850 H   0  0  0  0  0  1           0  0  0
    0.1537   -1.4575   -0.8538 H   0  0  0  0  0  1           0  0  0
   -1.7468    1.3905   -3.5689 H   0  0  0  0  0  1           0  0  0
   -2.9074    0.4286   -4.4526 H   0  0  0  0  0  1           0  0  0
   -2.5584   -1.9631   -4.6636 H   0  0  0  0  0  1           0  0  0
   -1.1562   -2.6942   -3.9204 H   0  0  0  0  0  1           0  0  0
   -1.7029   -1.7481   -1.8431 H   0  0  0  0  0  1           0  0  0
   -3.1178   -0.9665   -2.5065 H   0  0  0  0  0  1           0  0  0
   -2.1990   -0.5082   -6.7614 H   0  0  0  0  0  1           0  0  0
    0.0373    0.8516   -1.6169 H   0  0  0  0  0  1           0  0  0
   -0.5628    1.3267   -0.0461 H   0  0  0  0  0  1           0  0  0
   -0.0807    1.0248   -5.2891 H   0  0  0  0  0  1           0  0  0
   -1.5329    1.6802   -6.0064 H   0  0  0  0  0  1           0  0  0
   -0.9083   -2.4988   -6.3613 H   0  0  0  0  0  1           0  0  0
    0.3040   -1.5772   -5.5046 H   0  0  0  0  0  1           0  0  0
   -2.5395   -0.0355   -0.3753 H   0  0  0  0  0  1           0  0  0
   -2.3665    1.1562   -1.6414 H   0  0  0  0  0  1           0  0  0
    7.4735   -0.7877    1.8811 H   0  0  0  0  0  1           0  0  0
    6.3832   -1.7208    0.8843 H   0  0  0  0  0  1           0  0  0
    5.9224   -1.2861    2.5127 H   0  0  0  0  0  1           0  0  0
    6.9914    1.5918    2.4054 H   0  0  0  0  0  1           0  0  0
    5.4526    1.1184    3.0844 H   0  0  0  0  0  1           0  0  0
    5.5187    2.3429    1.8398 H   0  0  0  0  0  1           0  0  0
    7.6236    0.9895    0.1443 H   0  0  0  0  0  1           0  0  0
    6.1727    1.7138   -0.5064 H   0  0  0  0  0  1           0  0  0
    6.5664    0.0542   -0.8856 H   0  0  0  0  0  1           0  0  0
  1 22  1  0     0  0
  1 36  1  0     0  0
  2 23  1  0     0  0
  2 37  1  0     0  0
  3 24  1  0     0  0
  3 25  1  0     0  0
  3 26  1  0     0  0
  4  8  2  0     0  0
  4  9  1  0     0  0
  4 22  1  0     0  0
  5 10  2  0     0  0
  5 11  1  0     0  0
  5 22  1  0     0  0
  6 12  2  0     0  0
  6 13  1  0     0  0
  6 23  1  0     0  0
  7 14  2  0     0  0
  7 15  1  0     0  0
  7 27  1  0     0  0
  8 16  1  0     0  0
  8 38  1  0     0  0
  9 17  2  0     0  0
  9 39  1  0     0  0
 10 18  1  0     0  0
 10 40  1  0     0  0
 11 19  2  0     0  0
 11 41  1  0     0  0
 12 14  1  0     0  0
 12 42  1  0     0  0
 13 15  2  0     0  0
 13 43  1  0     0  0
 14 44  1  0     0  0
 15 45  1  0     0  0
 16 20  2  0     0  0
 16 46  1  0     0  0
 17 20  1  0     0  0
 17 47  1  0     0  0
 18 21  2  0     0  0
 18 48  1  0     0  0
 19 21  1  0     0  0
 19 49  1  0     0  0
 20 50  1  0     0  0
 21 51  1  0     0  0
 22 28  1  0     0  0
 23 29  1  0     0  0
 23 52  1  0     0  0
 24 30  1  0     0  0
 24 53  1  0     0  0
 24 54  1  0     0  0
 25 31  1  0     0  0
 25 55  1  0     0  0
 25 56  1  0     0  0
 26 32  1  0     0  0
 26 57  1  0     0  0
 26 58  1  0     0  0
 27 33  1  0     0  0
 27 34  1  0     0  0
 27 35  1  0     0  0
 28 30  1  0     0  0
 28 31  1  0     0  0
 28 59  1  0     0  0
 29 32  1  0     0  0
 29 60  1  0     0  0
 29 61  1  0     0  0
 30 62  1  0     0  0
 30 63  1  0     0  0
 31 64  1  0     0  0
 31 65  1  0     0  0
 32 66  1  0     0  0
 32 67  1  0     0  0
 33 68  1  0     0  0
 33 69  1  0     0  0
 33 70  1  0     0  0
 34 71  1  0     0  0
 34 72  1  0     0  0
 34 73  1  0     0  0
 35 74  1  0     0  0
 35 75  1  0     0  0
 35 76  1  0     0  0
M  END
> <Smiles>
CC(C)(C)c1ccc(C(O)CCCN2CCC(C(O)(c3ccccc3)c3ccccc3)CC2)cc1

> <Name>
Terfenadine

> <# Confs.>
25

> <Chembl_id>
CHEMBL17157

> <prediction>
5.146559492763647

$$$$
